@<TRIPOS>MOLECULE
81689726
   23    24     0     0     0
SMALL
NO_CHARGES

@<TRIPOS>ATOM
      1 Cl1         7.2690   25.0860   -6.7290 Cl        1 UNK         0.0000
      2 O1          3.8980   25.1120   -5.3990 O.2       1 UNK         0.0000
      3 N1          3.9090   24.7570   -8.7210 N.pl3     1 UNK         0.0000
      4 N2          9.3860   26.5600  -11.4000 N.ar      1 UNK         0.0000
      5 N3          3.9140   22.9650   -5.9730 N.am      1 UNK         0.0000
      6 C1          5.9880   25.3300   -9.2220 C.2       1 UNK         0.0000
      7 C2          4.6430   24.6670   -7.5580 C.2       1 UNK         0.0000
      8 C3          5.9420   25.0250   -7.8460 C.2       1 UNK         0.0000
      9 C4          7.1830   25.7630   -9.9870 C.ar      1 UNK         0.0000
     10 C5          4.7190   25.1550   -9.7230 C.2       1 UNK         0.0000
     11 C6          7.9860   26.8110   -9.5320 C.ar      1 UNK         0.0000
     12 C7          7.5390   25.1270  -11.1810 C.ar      1 UNK         0.0000
     13 C8          4.1300   24.2670   -6.2440 C.2       1 UNK         0.0000
     14 C9          9.0870   27.1820  -10.2750 C.ar      1 UNK         0.0000
     15 C10         8.6540   25.5650  -11.8650 C.ar      1 UNK         0.0000
     16 H1          4.4200   25.3110  -10.7490 H         1 UNK         0.0000
     17 H2          2.9630   24.5640   -8.8050 H         1 UNK         0.0000
     18 H3          7.7480   27.3260   -8.6120 H         1 UNK         0.0000
     19 H4          6.9470   24.3090  -11.5640 H         1 UNK         0.0000
     20 H5          9.7140   27.9920   -9.9310 H         1 UNK         0.0000
     21 H6          8.9350   25.0840  -12.7900 H         1 UNK         0.0000
     22 H7          3.5740   22.7010   -5.1030 H         1 UNK         0.0000
     23 H8          4.0940   22.2930   -6.6480 H         1 UNK         0.0000
@<TRIPOS>BOND
     1    1    8 1
     2    2   13 2
     3    3    7 1
     4    3   10 1
     5    3   17 1
     6    4   14 ar
     7    4   15 ar
     8    5   13 am
     9    5   22 1
    10    5   23 1
    11    6    8 1
    12    6    9 1
    13    6   10 2
    14    7    8 2
    15    7   13 1
    16    9   11 ar
    17    9   12 ar
    18   10   16 1
    19   11   14 ar
    20   11   18 1
    21   12   15 ar
    22   12   19 1
    23   14   20 1
    24   15   21 1
