@<TRIPOS>MOLECULE
81689726
   23    24     0     0     0
SMALL
NO_CHARGES

@<TRIPOS>ATOM
      1 Cl1         9.4220   25.9980  -10.7610 Cl        1 UNK         0.0000
      2 O1          9.1610   27.1100   -6.7880 O.2       1 UNK         0.0000
      3 N1          6.4980   26.3440   -8.1730 N.pl3     1 UNK         0.0000
      4 N2          6.0320   22.9350  -13.5190 N.ar      1 UNK         0.0000
      5 N3          9.2320   28.5690   -8.4630 N.am      1 UNK         0.0000
      6 C1          6.7780   25.2970  -10.1030 C.2       1 UNK         0.0000
      7 C2          7.7820   26.6140   -8.5960 C.2       1 UNK         0.0000
      8 C3          7.9770   25.9750   -9.8000 C.2       1 UNK         0.0000
      9 C4          6.5160   24.4670  -11.3040 C.ar      1 UNK         0.0000
     10 C5          5.8940   25.5510   -9.0800 C.2       1 UNK         0.0000
     11 C6          6.8940   24.9060  -12.5760 C.ar      1 UNK         0.0000
     12 C7          5.8900   23.2220  -11.1930 C.ar      1 UNK         0.0000
     13 C8          8.7650   27.4420   -7.8900 C.2       1 UNK         0.0000
     14 C9          6.6310   24.1020  -13.6660 C.ar      1 UNK         0.0000
     15 C10         5.6600   22.4840  -12.3350 C.ar      1 UNK         0.0000
     16 H1          4.8830   25.1770   -9.0140 H         1 UNK         0.0000
     17 H2          6.0950   26.6720   -7.3550 H         1 UNK         0.0000
     18 H3          7.3840   25.8590  -12.7050 H         1 UNK         0.0000
     19 H4          5.5870   22.8450  -10.2280 H         1 UNK         0.0000
     20 H5          6.9190   24.4320  -14.6540 H         1 UNK         0.0000
     21 H6          5.1730   21.5240  -12.2610 H         1 UNK         0.0000
     22 H7          9.8830   29.1160   -7.9960 H         1 UNK         0.0000
     23 H8          8.9200   28.8310   -9.3430 H         1 UNK         0.0000
@<TRIPOS>BOND
     1    1    8 1
     2    2   13 2
     3    3    7 1
     4    3   10 1
     5    3   17 1
     6    4   14 ar
     7    4   15 ar
     8    5   13 am
     9    5   22 1
    10    5   23 1
    11    6    8 1
    12    6    9 1
    13    6   10 2
    14    7    8 2
    15    7   13 1
    16    9   11 ar
    17    9   12 ar
    18   10   16 1
    19   11   14 ar
    20   11   18 1
    21   12   15 ar
    22   12   19 1
    23   14   20 1
    24   15   21 1
