@<TRIPOS>MOLECULE
81689726
   23    24     0     0     0
SMALL
NO_CHARGES

@<TRIPOS>ATOM
      1 Cl1         6.3360   24.2040   -7.6460 Cl        1 UNK         0.0000
      2 O1          2.9920   22.5370   -7.7190 O.2       1 UNK         0.0000
      3 N1          3.4740   24.5190  -10.3070 N.pl3     1 UNK         0.0000
      4 N2          9.5520   25.9190  -11.5400 N.ar      1 UNK         0.0000
      5 N3          2.4670   24.6150   -7.1310 N.am      1 UNK         0.0000
      6 C1          5.6580   24.8810  -10.2910 C.2       1 UNK         0.0000
      7 C2          3.9250   24.2090   -9.0420 C.2       1 UNK         0.0000
      8 C3          5.2840   24.4320   -9.0070 C.2       1 UNK         0.0000
      9 C4          7.0270   25.2450  -10.7310 C.ar      1 UNK         0.0000
     10 C5          4.5170   24.9220  -11.0590 C.2       1 UNK         0.0000
     11 C6          7.6580   24.5480  -11.7640 C.ar      1 UNK         0.0000
     12 C7          7.7180   26.3010  -10.1260 C.ar      1 UNK         0.0000
     13 C8          3.1020   23.7310   -7.9270 C.2       1 UNK         0.0000
     14 C9          8.9320   24.9210  -12.1410 C.ar      1 UNK         0.0000
     15 C10         8.9910   26.6030  -10.5610 C.ar      1 UNK         0.0000
     16 H1          4.4650   25.2290  -12.0930 H         1 UNK         0.0000
     17 H2          2.5550   24.4550  -10.6070 H         1 UNK         0.0000
     18 H3          7.1580   23.7300  -12.2600 H         1 UNK         0.0000
     19 H4          7.2620   26.8670   -9.3270 H         1 UNK         0.0000
     20 H5          9.4290   24.3880  -12.9380 H         1 UNK         0.0000
     21 H6          9.5350   27.4120  -10.0980 H         1 UNK         0.0000
     22 H7          1.9220   24.2990   -6.3930 H         1 UNK         0.0000
     23 H8          2.5580   25.5660   -7.2940 H         1 UNK         0.0000
@<TRIPOS>BOND
     1    1    8 1
     2    2   13 2
     3    3    7 1
     4    3   10 1
     5    3   17 1
     6    4   14 ar
     7    4   15 ar
     8    5   13 am
     9    5   22 1
    10    5   23 1
    11    6    8 1
    12    6    9 1
    13    6   10 2
    14    7    8 2
    15    7   13 1
    16    9   11 ar
    17    9   12 ar
    18   10   16 1
    19   11   14 ar
    20   11   18 1
    21   12   15 ar
    22   12   19 1
    23   14   20 1
    24   15   21 1
