@<TRIPOS>MOLECULE
81689726
   23    24     0     0     0
SMALL
NO_CHARGES

@<TRIPOS>ATOM
      1 Cl1         5.4660   23.2260  -10.5680 Cl        1 UNK         0.0000
      2 O1          2.3380   22.4080   -8.0330 O.2       1 UNK         0.0000
      3 N1          3.4790   25.2960   -7.8970 N.pl3     1 UNK         0.0000
      4 N2          9.2200   26.9820  -10.0460 N.ar      1 UNK         0.0000
      5 N3          2.0070   23.0140  -10.1460 N.am      1 UNK         0.0000
      6 C1          5.4390   25.4960   -8.9070 C.2       1 UNK         0.0000
      7 C2          3.6010   24.2250   -8.7550 C.2       1 UNK         0.0000
      8 C3          4.8180   24.3260   -9.3920 C.2       1 UNK         0.0000
      9 C4          6.7670   26.0180   -9.3080 C.ar      1 UNK         0.0000
     10 C5          4.5840   26.0620   -7.9890 C.2       1 UNK         0.0000
     11 C6          7.2590   25.8140  -10.6000 C.ar      1 UNK         0.0000
     12 C7          7.5600   26.7340   -8.4050 C.ar      1 UNK         0.0000
     13 C8          2.6130   23.1600   -8.9510 C.2       1 UNK         0.0000
     14 C9          8.5000   26.3170  -10.9310 C.ar      1 UNK         0.0000
     15 C10         8.7920   27.1970   -8.8160 C.ar      1 UNK         0.0000
     16 H1          4.7680   26.9700   -7.4330 H         1 UNK         0.0000
     17 H2          2.7190   25.4710   -7.3210 H         1 UNK         0.0000
     18 H3          6.6770   25.2710  -11.3290 H         1 UNK         0.0000
     19 H4          7.2140   26.9170   -7.3980 H         1 UNK         0.0000
     20 H5          8.8890   26.1640  -11.9260 H         1 UNK         0.0000
     21 H6          9.4130   27.7470   -8.1250 H         1 UNK         0.0000
     22 H7          1.3530   22.3090  -10.2750 H         1 UNK         0.0000
     23 H8          2.2220   23.6150  -10.8750 H         1 UNK         0.0000
@<TRIPOS>BOND
     1    1    8 1
     2    2   13 2
     3    3    7 1
     4    3   10 1
     5    3   17 1
     6    4   14 ar
     7    4   15 ar
     8    5   13 am
     9    5   22 1
    10    5   23 1
    11    6    8 1
    12    6    9 1
    13    6   10 2
    14    7    8 2
    15    7   13 1
    16    9   11 ar
    17    9   12 ar
    18   10   16 1
    19   11   14 ar
    20   11   18 1
    21   12   15 ar
    22   12   19 1
    23   14   20 1
    24   15   21 1
