@<TRIPOS>MOLECULE
81689726
   23    24     0     0     0
SMALL
NO_CHARGES

@<TRIPOS>ATOM
      1 Cl1         5.4860   25.4700  -10.9870 Cl        1 UNK         0.0000
      2 O1          6.5250   23.6740  -14.6940 O.2       1 UNK         0.0000
      3 N1          8.7580   24.1610  -12.7030 N.pl3     1 UNK         0.0000
      4 N2          8.7770   28.0020   -7.6370 N.ar      1 UNK         0.0000
      5 N3          5.4270   22.8240  -12.9580 N.am      1 UNK         0.0000
      6 C1          8.2990   25.4680  -10.9760 C.2       1 UNK         0.0000
      7 C2          7.3860   24.2320  -12.6040 C.2       1 UNK         0.0000
      8 C3          7.0760   25.0460  -11.5380 C.2       1 UNK         0.0000
      9 C4          8.4670   26.3580   -9.8020 C.ar      1 UNK         0.0000
     10 C5          9.3090   24.9050  -11.7220 C.2       1 UNK         0.0000
     11 C6          7.9560   26.0010   -8.5510 C.ar      1 UNK         0.0000
     12 C7          9.1470   27.5750   -9.9150 C.ar      1 UNK         0.0000
     13 C8          6.4230   23.5630  -13.4850 C.2       1 UNK         0.0000
     14 C9          8.1350   26.8590   -7.4860 C.ar      1 UNK         0.0000
     15 C10         9.2760   28.3760   -8.8010 C.ar      1 UNK         0.0000
     16 H1         10.3670   25.0370  -11.5520 H         1 UNK         0.0000
     17 H2          9.2490   23.6570  -13.3700 H         1 UNK         0.0000
     18 H3          7.4290   25.0680   -8.4200 H         1 UNK         0.0000
     19 H4          9.5600   27.8850  -10.8640 H         1 UNK         0.0000
     20 H5          7.7440   26.5920   -6.5150 H         1 UNK         0.0000
     21 H6          9.7940   29.3200   -8.8780 H         1 UNK         0.0000
     22 H7          4.7900   22.3820  -13.5410 H         1 UNK         0.0000
     23 H8          5.3490   22.7320  -11.9960 H         1 UNK         0.0000
@<TRIPOS>BOND
     1    1    8 1
     2    2   13 2
     3    3    7 1
     4    3   10 1
     5    3   17 1
     6    4   14 ar
     7    4   15 ar
     8    5   13 am
     9    5   22 1
    10    5   23 1
    11    6    8 1
    12    6    9 1
    13    6   10 2
    14    7    8 2
    15    7   13 1
    16    9   11 ar
    17    9   12 ar
    18   10   16 1
    19   11   14 ar
    20   11   18 1
    21   12   15 ar
    22   12   19 1
    23   14   20 1
    24   15   21 1
