@<TRIPOS>MOLECULE
81689726
   23    24     0     0     0
SMALL
NO_CHARGES

@<TRIPOS>ATOM
      1 Cl1         7.0960   25.0880   -6.9300 Cl        1 UNK         0.0000
      2 O1          3.9850   23.0670   -6.2720 O.2       1 UNK         0.0000
      3 N1          3.8590   24.7110   -9.1080 N.pl3     1 UNK         0.0000
      4 N2          9.4580   26.5740  -11.4770 N.ar      1 UNK         0.0000
      5 N3          3.3680   25.1540   -5.8250 N.am      1 UNK         0.0000
      6 C1          5.9560   25.3070   -9.4930 C.2       1 UNK         0.0000
      7 C2          4.5270   24.6340   -7.9050 C.2       1 UNK         0.0000
      8 C3          5.8350   25.0060   -8.1200 C.2       1 UNK         0.0000
      9 C4          7.1870   25.7520  -10.1900 C.ar      1 UNK         0.0000
     10 C5          4.7190   25.1150  -10.0640 C.2       1 UNK         0.0000
     11 C6          7.6110   25.1280  -11.3660 C.ar      1 UNK         0.0000
     12 C7          7.9510   26.8120   -9.6930 C.ar      1 UNK         0.0000
     13 C8          3.9450   24.2330   -6.6210 C.2       1 UNK         0.0000
     14 C9          8.7610   25.5730  -11.9830 C.ar      1 UNK         0.0000
     15 C10         9.0910   27.1910  -10.3690 C.ar      1 UNK         0.0000
     16 H1          4.4770   25.2640  -11.1060 H         1 UNK         0.0000
     17 H2          2.9220   24.5060   -9.2450 H         1 UNK         0.0000
     18 H3          7.0480   24.3080  -11.7860 H         1 UNK         0.0000
     19 H4          7.6540   27.3240   -8.7890 H         1 UNK         0.0000
     20 H5          9.0980   25.0970  -12.8920 H         1 UNK         0.0000
     21 H6          9.6900   28.0050   -9.9900 H         1 UNK         0.0000
     22 H7          2.9820   24.8890   -4.9760 H         1 UNK         0.0000
     23 H8          3.3400   26.0830   -6.1010 H         1 UNK         0.0000
@<TRIPOS>BOND
     1    1    8 1
     2    2   13 2
     3    3    7 1
     4    3   10 1
     5    3   17 1
     6    4   14 ar
     7    4   15 ar
     8    5   13 am
     9    5   22 1
    10    5   23 1
    11    6    8 1
    12    6    9 1
    13    6   10 2
    14    7    8 2
    15    7   13 1
    16    9   11 ar
    17    9   12 ar
    18   10   16 1
    19   11   14 ar
    20   11   18 1
    21   12   15 ar
    22   12   19 1
    23   14   20 1
    24   15   21 1
