@<TRIPOS>MOLECULE
81689726
   23    24     0     0     0
SMALL
NO_CHARGES

@<TRIPOS>ATOM
      1 Cl1         4.7270   25.8940   -7.6860 Cl        1 UNK         0.0000
      2 O1          3.1870   22.8990   -8.3890 O.2       1 UNK         0.0000
      3 N1          5.5190   23.6280  -10.7850 N.pl3     1 UNK         0.0000
      4 N2          9.5180   28.0570   -8.5920 N.ar      1 UNK         0.0000
      5 N3          2.3640   23.6140  -10.3250 N.am      1 UNK         0.0000
      6 C1          6.5770   25.2440   -9.7030 C.2       1 UNK         0.0000
      7 C2          4.6980   24.0270   -9.7530 C.2       1 UNK         0.0000
      8 C3          5.3350   25.0380   -9.0680 C.2       1 UNK         0.0000
      9 C4          7.6110   26.2330   -9.3130 C.ar      1 UNK         0.0000
     10 C5          6.6510   24.3590  -10.7540 C.2       1 UNK         0.0000
     11 C6          8.3130   26.9570  -10.2800 C.ar      1 UNK         0.0000
     12 C7          7.9050   26.4700   -7.9670 C.ar      1 UNK         0.0000
     13 C8          3.3740   23.4770   -9.4430 C.2       1 UNK         0.0000
     14 C9          9.2660   27.8670   -9.8730 C.ar      1 UNK         0.0000
     15 C10         8.8780   27.3940   -7.6470 C.ar      1 UNK         0.0000
     16 H1          7.4780   24.2660  -11.4420 H         1 UNK         0.0000
     17 H2          5.3160   22.9320  -11.4280 H         1 UNK         0.0000
     18 H3          8.1130   26.8070  -11.3310 H         1 UNK         0.0000
     19 H4          7.3820   25.9350   -7.1890 H         1 UNK         0.0000
     20 H5          9.8140   28.4320  -10.6130 H         1 UNK         0.0000
     21 H6          9.1160   27.5810   -6.6110 H         1 UNK         0.0000
     22 H7          1.4890   23.2500  -10.1200 H         1 UNK         0.0000
     23 H8          2.5120   24.0780  -11.1640 H         1 UNK         0.0000
@<TRIPOS>BOND
     1    1    8 1
     2    2   13 2
     3    3    7 1
     4    3   10 1
     5    3   17 1
     6    4   14 ar
     7    4   15 ar
     8    5   13 am
     9    5   22 1
    10    5   23 1
    11    6    8 1
    12    6    9 1
    13    6   10 2
    14    7    8 2
    15    7   13 1
    16    9   11 ar
    17    9   12 ar
    18   10   16 1
    19   11   14 ar
    20   11   18 1
    21   12   15 ar
    22   12   19 1
    23   14   20 1
    24   15   21 1
