@<TRIPOS>MOLECULE
81689726
   23    24     0     0     0
SMALL
NO_CHARGES

@<TRIPOS>ATOM
      1 Cl1         5.9810   25.2780   -9.7800 Cl        1 UNK         0.0000
      2 O1          7.4970   28.4240   -8.6030 O.2       1 UNK         0.0000
      3 N1          9.5140   26.7460  -10.6360 N.pl3     1 UNK         0.0000
      4 N2          6.5510   22.4540  -14.2720 N.ar      1 UNK         0.0000
      5 N3          8.7100   26.9730   -7.4360 N.am      1 UNK         0.0000
      6 C1          8.1450   25.2840  -11.5780 C.2       1 UNK         0.0000
      7 C2          8.3960   26.6640   -9.8330 C.2       1 UNK         0.0000
      8 C3          7.5320   25.7540  -10.3990 C.2       1 UNK         0.0000
      9 C4          7.5840   24.2890  -12.5240 C.ar      1 UNK         0.0000
     10 C5          9.3620   25.9160  -11.6870 C.2       1 UNK         0.0000
     11 C6          6.9600   23.1280  -12.0600 C.ar      1 UNK         0.0000
     12 C7          7.6610   24.4900  -13.9060 C.ar      1 UNK         0.0000
     13 C8          8.1720   27.4100   -8.5910 C.2       1 UNK         0.0000
     14 C9          6.4530   22.2290  -12.9750 C.ar      1 UNK         0.0000
     15 C10         7.1330   23.5380  -14.7520 C.ar      1 UNK         0.0000
     16 H1         10.0780   25.7710  -12.4820 H         1 UNK         0.0000
     17 H2         10.2840   27.3110  -10.4710 H         1 UNK         0.0000
     18 H3          6.8760   22.9360  -11.0010 H         1 UNK         0.0000
     19 H4          8.1310   25.3770  -14.3050 H         1 UNK         0.0000
     20 H5          5.9690   21.3290  -12.6260 H         1 UNK         0.0000
     21 H6          7.1910   23.6820  -15.8200 H         1 UNK         0.0000
     22 H7          8.5620   27.4670   -6.6140 H         1 UNK         0.0000
     23 H8          9.2440   26.1640   -7.4250 H         1 UNK         0.0000
@<TRIPOS>BOND
     1    1    8 1
     2    2   13 2
     3    3    7 1
     4    3   10 1
     5    3   17 1
     6    4   14 ar
     7    4   15 ar
     8    5   13 am
     9    5   22 1
    10    5   23 1
    11    6    8 1
    12    6    9 1
    13    6   10 2
    14    7    8 2
    15    7   13 1
    16    9   11 ar
    17    9   12 ar
    18   10   16 1
    19   11   14 ar
    20   11   18 1
    21   12   15 ar
    22   12   19 1
    23   14   20 1
    24   15   21 1
