@<TRIPOS>MOLECULE
81689726
   23    24     0     0     0
SMALL
NO_CHARGES

@<TRIPOS>ATOM
      1 Cl1         9.4110   25.9420  -11.0090 Cl        1 UNK         0.0000
      2 O1          8.7190   27.0100   -7.1390 O.2       1 UNK         0.0000
      3 N1          6.2090   26.0620   -8.7500 N.pl3     1 UNK         0.0000
      4 N2          6.5940   22.5930  -14.0640 N.ar      1 UNK         0.0000
      5 N3          8.6800   28.5490   -8.7420 N.am      1 UNK         0.0000
      6 C1          6.7770   25.0300  -10.6240 C.2       1 UNK         0.0000
      7 C2          7.5050   26.4340   -9.0390 C.2       1 UNK         0.0000
      8 C3          7.8780   25.8060  -10.2060 C.2       1 UNK         0.0000
      9 C4          6.7130   24.1740  -11.8330 C.ar      1 UNK         0.0000
     10 C5          5.7710   25.2160   -9.7030 C.2       1 UNK         0.0000
     11 C6          7.0820   24.6720  -13.0860 C.ar      1 UNK         0.0000
     12 C7          6.2880   22.8440  -11.7500 C.ar      1 UNK         0.0000
     13 C8          8.3370   27.3440   -8.2450 C.2       1 UNK         0.0000
     14 C9          7.0070   23.8410  -14.1840 C.ar      1 UNK         0.0000
     15 C10         6.2370   22.0840  -12.8990 C.ar      1 UNK         0.0000
     16 H1          4.7930   24.7610   -9.7390 H         1 UNK         0.0000
     17 H2          5.6960   26.3610   -7.9840 H         1 UNK         0.0000
     18 H3          7.4200   25.6920  -13.1930 H         1 UNK         0.0000
     19 H4          5.9990   22.4200  -10.7990 H         1 UNK         0.0000
     20 H5          7.2890   24.2170  -15.1570 H         1 UNK         0.0000
     21 H6          5.9050   21.0580  -12.8460 H         1 UNK         0.0000
     22 H7          9.2310   29.1510   -8.2170 H         1 UNK         0.0000
     23 H8          8.3800   28.8130   -9.6250 H         1 UNK         0.0000
@<TRIPOS>BOND
     1    1    8 1
     2    2   13 2
     3    3    7 1
     4    3   10 1
     5    3   17 1
     6    4   14 ar
     7    4   15 ar
     8    5   13 am
     9    5   22 1
    10    5   23 1
    11    6    8 1
    12    6    9 1
    13    6   10 2
    14    7    8 2
    15    7   13 1
    16    9   11 ar
    17    9   12 ar
    18   10   16 1
    19   11   14 ar
    20   11   18 1
    21   12   15 ar
    22   12   19 1
    23   14   20 1
    24   15   21 1
