@<TRIPOS>MOLECULE
81689726
   23    24     0     0     0
SMALL
NO_CHARGES

@<TRIPOS>ATOM
      1 Cl1         8.4860   25.9580  -12.2450 Cl        1 UNK         0.0000
      2 O1          7.3230   25.2790  -15.5660 O.2       1 UNK         0.0000
      3 N1          5.4650   23.6780  -13.2650 N.pl3     1 UNK         0.0000
      4 N2          6.1160   26.2130   -7.4710 N.ar      1 UNK         0.0000
      5 N3          8.0300   23.2010  -15.2160 N.am      1 UNK         0.0000
      6 C1          6.0840   24.7450  -11.4260 C.2       1 UNK         0.0000
      7 C2          6.6470   24.3260  -13.5530 C.2       1 UNK         0.0000
      8 C3          7.0540   24.9930  -12.4190 C.2       1 UNK         0.0000
      9 C4          6.0960   25.2610  -10.0360 C.ar      1 UNK         0.0000
     10 C5          5.1250   23.9310  -11.9850 C.2       1 UNK         0.0000
     11 C6          7.2870   25.6770   -9.4350 C.ar      1 UNK         0.0000
     12 C7          4.9140   25.3510   -9.2940 C.ar      1 UNK         0.0000
     13 C8          7.3510   24.3030  -14.8390 C.2       1 UNK         0.0000
     14 C9          7.2520   26.1500   -8.1400 C.ar      1 UNK         0.0000
     15 C10         4.9700   25.8310   -8.0030 C.ar      1 UNK         0.0000
     16 H1          4.2470   23.5560  -11.4820 H         1 UNK         0.0000
     17 H2          4.9590   23.1300  -13.8830 H         1 UNK         0.0000
     18 H3          8.2210   25.6280   -9.9740 H         1 UNK         0.0000
     19 H4          3.9720   25.0450   -9.7250 H         1 UNK         0.0000
     20 H5          8.1670   26.4730   -7.6650 H         1 UNK         0.0000
     21 H6          4.0640   25.9000   -7.4190 H         1 UNK         0.0000
     22 H7          8.4950   23.1860  -16.0670 H         1 UNK         0.0000
     23 H8          8.0550   22.4250  -14.6350 H         1 UNK         0.0000
@<TRIPOS>BOND
     1    1    8 1
     2    2   13 2
     3    3    7 1
     4    3   10 1
     5    3   17 1
     6    4   14 ar
     7    4   15 ar
     8    5   13 am
     9    5   22 1
    10    5   23 1
    11    6    8 1
    12    6    9 1
    13    6   10 2
    14    7    8 2
    15    7   13 1
    16    9   11 ar
    17    9   12 ar
    18   10   16 1
    19   11   14 ar
    20   11   18 1
    21   12   15 ar
    22   12   19 1
    23   14   20 1
    24   15   21 1
