@<TRIPOS>MOLECULE
81689726
   23    24     0     0     0
SMALL
NO_CHARGES

@<TRIPOS>ATOM
      1 Cl1         6.3230   24.7350   -8.0500 Cl        1 UNK         0.0000
      2 O1          3.7460   23.9600   -5.9460 O.2       1 UNK         0.0000
      3 N1          2.6940   23.8120   -9.2090 N.pl3     1 UNK         0.0000
      4 N2          7.7630   23.4690  -13.0310 N.ar      1 UNK         0.0000
      5 N3          2.4420   25.6290   -6.6160 N.am      1 UNK         0.0000
      6 C1          4.6920   23.8410  -10.1610 C.2       1 UNK         0.0000
      7 C2          3.5910   24.2340   -8.2510 C.2       1 UNK         0.0000
      8 C3          4.8420   24.2660   -8.8250 C.2       1 UNK         0.0000
      9 C4          5.7720   23.7110  -11.1690 C.ar      1 UNK         0.0000
     10 C5          3.3570   23.5740  -10.3580 C.2       1 UNK         0.0000
     11 C6          6.5470   24.8140  -11.5380 C.ar      1 UNK         0.0000
     12 C7          6.0460   22.4800  -11.7730 C.ar      1 UNK         0.0000
     13 C8          3.2680   24.5950   -6.8670 C.2       1 UNK         0.0000
     14 C9          7.5410   24.6480  -12.4800 C.ar      1 UNK         0.0000
     15 C10         7.0540   22.4030  -12.7100 C.ar      1 UNK         0.0000
     16 H1          2.9120   23.2310  -11.2810 H         1 UNK         0.0000
     17 H2          1.7400   23.7020   -9.0760 H         1 UNK         0.0000
     18 H3          6.3710   25.7820  -11.0930 H         1 UNK         0.0000
     19 H4          5.4720   21.6020  -11.5120 H         1 UNK         0.0000
     20 H5          8.1450   25.4940  -12.7720 H         1 UNK         0.0000
     21 H6          7.2700   21.4580  -13.1850 H         1 UNK         0.0000
     22 H7          2.2280   25.8670   -5.7000 H         1 UNK         0.0000
     23 H8          2.0640   26.1380   -7.3490 H         1 UNK         0.0000
@<TRIPOS>BOND
     1    1    8 1
     2    2   13 2
     3    3    7 1
     4    3   10 1
     5    3   17 1
     6    4   14 ar
     7    4   15 ar
     8    5   13 am
     9    5   22 1
    10    5   23 1
    11    6    8 1
    12    6    9 1
    13    6   10 2
    14    7    8 2
    15    7   13 1
    16    9   11 ar
    17    9   12 ar
    18   10   16 1
    19   11   14 ar
    20   11   18 1
    21   12   15 ar
    22   12   19 1
    23   14   20 1
    24   15   21 1
