@<TRIPOS>MOLECULE
81689726
   23    24     0     0     0
SMALL
NO_CHARGES

@<TRIPOS>ATOM
      1 Cl1         9.4870   25.9730  -11.1020 Cl        1 UNK         0.0000
      2 O1          8.6110   26.9440   -7.2520 O.2       1 UNK         0.0000
      3 N1          6.1840   25.9880   -8.9900 N.pl3     1 UNK         0.0000
      4 N2          6.8800   22.6400  -14.3500 N.ar      1 UNK         0.0000
      5 N3          8.5900   28.5250   -8.8140 N.am      1 UNK         0.0000
      6 C1          6.8570   25.0050  -10.8560 C.2       1 UNK         0.0000
      7 C2          7.4840   26.3900   -9.2110 C.2       1 UNK         0.0000
      8 C3          7.9220   25.7930  -10.3720 C.2       1 UNK         0.0000
      9 C4          6.8650   24.1730  -12.0830 C.ar      1 UNK         0.0000
     10 C5          5.8070   25.1540   -9.9790 C.2       1 UNK         0.0000
     11 C6          6.5030   22.8240  -12.0390 C.ar      1 UNK         0.0000
     12 C7          7.2280   24.7200  -13.3190 C.ar      1 UNK         0.0000
     13 C8          8.2610   27.2980   -8.3630 C.2       1 UNK         0.0000
     14 C9          6.5250   22.0870  -13.2050 C.ar      1 UNK         0.0000
     15 C10         7.2280   23.9110  -14.4350 C.ar      1 UNK         0.0000
     16 H1          4.8400   24.6820  -10.0690 H         1 UNK         0.0000
     17 H2          5.6310   26.2620   -8.2420 H         1 UNK         0.0000
     18 H3          6.2120   22.3640  -11.1070 H         1 UNK         0.0000
     19 H4          7.5090   25.7600  -13.3960 H         1 UNK         0.0000
     20 H5          6.2480   21.0440  -13.1810 H         1 UNK         0.0000
     21 H6          7.5110   24.3220  -15.3920 H         1 UNK         0.0000
     22 H7          9.1040   29.1270   -8.2520 H         1 UNK         0.0000
     23 H8          8.3150   28.8060   -9.7000 H         1 UNK         0.0000
@<TRIPOS>BOND
     1    1    8 1
     2    2   13 2
     3    3    7 1
     4    3   10 1
     5    3   17 1
     6    4   14 ar
     7    4   15 ar
     8    5   13 am
     9    5   22 1
    10    5   23 1
    11    6    8 1
    12    6    9 1
    13    6   10 2
    14    7    8 2
    15    7   13 1
    16    9   11 ar
    17    9   12 ar
    18   10   16 1
    19   11   14 ar
    20   11   18 1
    21   12   15 ar
    22   12   19 1
    23   14   20 1
    24   15   21 1
