@<TRIPOS>MOLECULE
81689726
   23    24     0     0     0
SMALL
NO_CHARGES

@<TRIPOS>ATOM
      1 Cl1         4.0210   23.5150  -10.1120 Cl        1 UNK         0.0000
      2 O1          5.2240   25.6200   -6.7640 O.2       1 UNK         0.0000
      3 N1          6.8250   26.1490   -9.3580 N.pl3     1 UNK         0.0000
      4 N2          6.9150   22.3220  -14.4340 N.ar      1 UNK         0.0000
      5 N3          3.5340   26.2550   -8.0610 N.am      1 UNK         0.0000
      6 C1          6.4520   24.6570  -10.9510 C.2       1 UNK         0.0000
      7 C2          5.6370   25.5210   -9.0530 C.2       1 UNK         0.0000
      8 C3          5.3870   24.5830  -10.0290 C.2       1 UNK         0.0000
      9 C4          6.6150   23.8360  -12.1750 C.ar      1 UNK         0.0000
     10 C5          7.3160   25.6300  -10.5010 C.2       1 UNK         0.0000
     11 C6          6.4450   22.4490  -12.1370 C.ar      1 UNK         0.0000
     12 C7          6.9360   24.4290  -13.4000 C.ar      1 UNK         0.0000
     13 C8          4.7910   25.7990   -7.8880 C.2       1 UNK         0.0000
     14 C9          6.6060   21.7240  -13.2990 C.ar      1 UNK         0.0000
     15 C10         7.0830   23.6290  -14.5130 C.ar      1 UNK         0.0000
     16 H1          8.2350   25.9270  -10.9840 H         1 UNK         0.0000
     17 H2          7.2410   26.8520   -8.8360 H         1 UNK         0.0000
     18 H3          6.1930   21.9520  -11.2120 H         1 UNK         0.0000
     19 H4          7.0700   25.4980  -13.4710 H         1 UNK         0.0000
     20 H5          6.4770   20.6520  -13.2810 H         1 UNK         0.0000
     21 H6          7.3360   24.0770  -15.4620 H         1 UNK         0.0000
     22 H7          2.9750   26.4380   -7.2900 H         1 UNK         0.0000
     23 H8          3.1910   26.4020   -8.9550 H         1 UNK         0.0000
@<TRIPOS>BOND
     1    1    8 1
     2    2   13 2
     3    3    7 1
     4    3   10 1
     5    3   17 1
     6    4   14 ar
     7    4   15 ar
     8    5   13 am
     9    5   22 1
    10    5   23 1
    11    6    8 1
    12    6    9 1
    13    6   10 2
    14    7    8 2
    15    7   13 1
    16    9   11 ar
    17    9   12 ar
    18   10   16 1
    19   11   14 ar
    20   11   18 1
    21   12   15 ar
    22   12   19 1
    23   14   20 1
    24   15   21 1
