@<TRIPOS>MOLECULE
81689726
   23    24     0     0     0
SMALL
NO_CHARGES

@<TRIPOS>ATOM
      1 Cl1         5.5850   24.7500  -10.3670 Cl        1 UNK         0.0000
      2 O1          6.4530   21.4620  -13.2870 O.2       1 UNK         0.0000
      3 N1          8.3980   23.5550  -12.8220 N.pl3     1 UNK         0.0000
      4 N2          9.0640   28.5220   -8.9090 N.ar      1 UNK         0.0000
      5 N3          4.8640   22.5710  -12.1990 N.am      1 UNK         0.0000
      6 C1          8.1940   25.1760  -11.3280 C.2       1 UNK         0.0000
      7 C2          7.1400   23.4400  -12.2710 C.2       1 UNK         0.0000
      8 C3          6.9890   24.4440  -11.3410 C.2       1 UNK         0.0000
      9 C4          8.5000   26.3530  -10.4790 C.ar      1 UNK         0.0000
     10 C5          9.0340   24.5990  -12.2540 C.2       1 UNK         0.0000
     11 C6          9.2520   27.4210  -10.9740 C.ar      1 UNK         0.0000
     12 C7          8.0380   26.4260   -9.1610 C.ar      1 UNK         0.0000
     13 C8          6.1360   22.4300  -12.6190 C.2       1 UNK         0.0000
     14 C9          9.5130   28.4950  -10.1500 C.ar      1 UNK         0.0000
     15 C10         8.3490   27.5350   -8.4030 C.ar      1 UNK         0.0000
     16 H1         10.0350   24.9290  -12.4880 H         1 UNK         0.0000
     17 H2          8.7670   22.9770  -13.5070 H         1 UNK         0.0000
     18 H3          9.6250   27.4060  -11.9880 H         1 UNK         0.0000
     19 H4          7.4490   25.6230   -8.7420 H         1 UNK         0.0000
     20 H5         10.0940   29.3250  -10.5240 H         1 UNK         0.0000
     21 H6          8.0010   27.5990   -7.3830 H         1 UNK         0.0000
     22 H7          4.2000   21.9030  -12.4300 H         1 UNK         0.0000
     23 H8          4.6130   23.3400  -11.6640 H         1 UNK         0.0000
@<TRIPOS>BOND
     1    1    8 1
     2    2   13 2
     3    3    7 1
     4    3   10 1
     5    3   17 1
     6    4   14 ar
     7    4   15 ar
     8    5   13 am
     9    5   22 1
    10    5   23 1
    11    6    8 1
    12    6    9 1
    13    6   10 2
    14    7    8 2
    15    7   13 1
    16    9   11 ar
    17    9   12 ar
    18   10   16 1
    19   11   14 ar
    20   11   18 1
    21   12   15 ar
    22   12   19 1
    23   14   20 1
    24   15   21 1
