@<TRIPOS>MOLECULE
81689726
   23    24     0     0     0
SMALL
NO_CHARGES

@<TRIPOS>ATOM
      1 Cl1         9.4920   24.9140  -11.7850 Cl        1 UNK         0.0000
      2 O1          7.3120   24.8620  -15.1800 O.2       1 UNK         0.0000
      3 N1          5.6420   24.7730  -12.5110 N.pl3     1 UNK         0.0000
      4 N2          8.0720   26.6440   -6.9420 N.ar      1 UNK         0.0000
      5 N3          7.9610   22.9140  -14.3310 N.am      1 UNK         0.0000
      6 C1          6.8990   25.3410  -10.7790 C.2       1 UNK         0.0000
      7 C2          6.9550   24.6080  -12.8940 C.2       1 UNK         0.0000
      8 C3          7.7570   24.9510  -11.8290 C.2       1 UNK         0.0000
      9 C4          7.3110   25.7980   -9.4300 C.ar      1 UNK         0.0000
     10 C5          5.6080   25.2160  -11.2380 C.2       1 UNK         0.0000
     11 C6          6.8780   25.1300   -8.2820 C.ar      1 UNK         0.0000
     12 C7          8.1490   26.9070   -9.2730 C.ar      1 UNK         0.0000
     13 C8          7.4180   24.1410  -14.2050 C.2       1 UNK         0.0000
     14 C9          7.2860   25.5890   -7.0470 C.ar      1 UNK         0.0000
     15 C10         8.5040   27.3030   -8.0010 C.ar      1 UNK         0.0000
     16 H1          4.7140   25.4340  -10.6720 H         1 UNK         0.0000
     17 H2          4.8680   24.6000  -13.0670 H         1 UNK         0.0000
     18 H3          6.2340   24.2670   -8.3600 H         1 UNK         0.0000
     19 H4          8.5100   27.4480  -10.1360 H         1 UNK         0.0000
     20 H5          6.9560   25.0790   -6.1530 H         1 UNK         0.0000
     21 H6          9.1470   28.1600   -7.8680 H         1 UNK         0.0000
     22 H7          8.2670   22.6060  -15.1980 H         1 UNK         0.0000
     23 H8          8.0500   22.3410  -13.5530 H         1 UNK         0.0000
@<TRIPOS>BOND
     1    1    8 1
     2    2   13 2
     3    3    7 1
     4    3   10 1
     5    3   17 1
     6    4   14 ar
     7    4   15 ar
     8    5   13 am
     9    5   22 1
    10    5   23 1
    11    6    8 1
    12    6    9 1
    13    6   10 2
    14    7    8 2
    15    7   13 1
    16    9   11 ar
    17    9   12 ar
    18   10   16 1
    19   11   14 ar
    20   11   18 1
    21   12   15 ar
    22   12   19 1
    23   14   20 1
    24   15   21 1
