@<TRIPOS>MOLECULE
81689726
   23    24     0     0     0
SMALL
NO_CHARGES

@<TRIPOS>ATOM
      1 Cl1         7.2230   25.4170   -9.8740 Cl        1 UNK         0.0000
      2 O1          5.4940   26.7290   -7.7830 O.2       1 UNK         0.0000
      3 N1          3.4470   24.4090   -9.5780 N.pl3     1 UNK         0.0000
      4 N2          7.1810   22.5540  -14.3770 N.ar      1 UNK         0.0000
      5 N3          3.8030   25.6190   -6.8640 N.am      1 UNK         0.0000
      6 C1          5.0750   24.0090  -11.0230 C.2       1 UNK         0.0000
      7 C2          4.5700   25.0540   -9.1080 C.2       1 UNK         0.0000
      8 C3          5.5970   24.8230   -9.9960 C.2       1 UNK         0.0000
      9 C4          5.8160   23.4980  -12.2020 C.ar      1 UNK         0.0000
     10 C5          3.7510   23.7780  -10.7300 C.2       1 UNK         0.0000
     11 C6          6.3590   24.3760  -13.1440 C.ar      1 UNK         0.0000
     12 C7          5.9950   22.1250  -12.3980 C.ar      1 UNK         0.0000
     13 C8          4.6550   25.8530   -7.8820 C.2       1 UNK         0.0000
     14 C9          7.0400   23.8580  -14.2260 C.ar      1 UNK         0.0000
     15 C10         6.6840   21.6920  -13.5100 C.ar      1 UNK         0.0000
     16 H1          3.0670   23.1910  -11.3250 H         1 UNK         0.0000
     17 H2          2.5780   24.4080   -9.1480 H         1 UNK         0.0000
     18 H3          6.2470   25.4440  -13.0280 H         1 UNK         0.0000
     19 H4          5.5940   21.4140  -11.6900 H         1 UNK         0.0000
     20 H5          7.4630   24.5280  -14.9600 H         1 UNK         0.0000
     21 H6          6.8240   20.6340  -13.6730 H         1 UNK         0.0000
     22 H7          3.8590   26.1470   -6.0530 H         1 UNK         0.0000
     23 H8          3.1310   24.9240   -6.9440 H         1 UNK         0.0000
@<TRIPOS>BOND
     1    1    8 1
     2    2   13 2
     3    3    7 1
     4    3   10 1
     5    3   17 1
     6    4   14 ar
     7    4   15 ar
     8    5   13 am
     9    5   22 1
    10    5   23 1
    11    6    8 1
    12    6    9 1
    13    6   10 2
    14    7    8 2
    15    7   13 1
    16    9   11 ar
    17    9   12 ar
    18   10   16 1
    19   11   14 ar
    20   11   18 1
    21   12   15 ar
    22   12   19 1
    23   14   20 1
    24   15   21 1
