@<TRIPOS>MOLECULE
81689726
   23    24     0     0     0
SMALL
NO_CHARGES

@<TRIPOS>ATOM
      1 Cl1         5.7950   22.5110  -11.4420 Cl        1 UNK         0.0000
      2 O1          6.5310   21.8710  -14.2680 O.2       1 UNK         0.0000
      3 N1          8.2080   24.9150  -13.3820 N.pl3     1 UNK         0.0000
      4 N2          5.7900   26.2790   -7.6630 N.ar      1 UNK         0.0000
      5 N3          8.4440   22.5450  -15.1760 N.am      1 UNK         0.0000
      6 C1          7.1590   24.9720  -11.4340 C.2       1 UNK         0.0000
      7 C2          7.5000   23.7380  -13.2710 C.2       1 UNK         0.0000
      8 C3          6.8340   23.7530  -12.0660 C.2       1 UNK         0.0000
      9 C4          6.6770   25.4310  -10.1090 C.ar      1 UNK         0.0000
     10 C5          8.0040   25.6570  -12.2760 C.2       1 UNK         0.0000
     11 C6          5.3160   25.4110   -9.7940 C.ar      1 UNK         0.0000
     12 C7          7.5740   25.8890   -9.1380 C.ar      1 UNK         0.0000
     13 C8          7.4580   22.6610  -14.2650 C.2       1 UNK         0.0000
     14 C9          4.9110   25.8480   -8.5490 C.ar      1 UNK         0.0000
     15 C10         7.0840   26.3130   -7.9210 C.ar      1 UNK         0.0000
     16 H1          8.4320   26.6300  -12.0840 H         1 UNK         0.0000
     17 H2          8.7650   25.1680  -14.1350 H         1 UNK         0.0000
     18 H3          4.5910   25.0610  -10.5130 H         1 UNK         0.0000
     19 H4          8.6340   25.9150   -9.3410 H         1 UNK         0.0000
     20 H5          3.8610   25.8370   -8.2960 H         1 UNK         0.0000
     21 H6          7.7670   26.6730   -7.1670 H         1 UNK         0.0000
     22 H7          8.4160   21.8320  -15.8340 H         1 UNK         0.0000
     23 H8          9.1800   23.1760  -15.1770 H         1 UNK         0.0000
@<TRIPOS>BOND
     1    1    8 1
     2    2   13 2
     3    3    7 1
     4    3   10 1
     5    3   17 1
     6    4   14 ar
     7    4   15 ar
     8    5   13 am
     9    5   22 1
    10    5   23 1
    11    6    8 1
    12    6    9 1
    13    6   10 2
    14    7    8 2
    15    7   13 1
    16    9   11 ar
    17    9   12 ar
    18   10   16 1
    19   11   14 ar
    20   11   18 1
    21   12   15 ar
    22   12   19 1
    23   14   20 1
    24   15   21 1
