@<TRIPOS>MOLECULE
81689726
   23    24     0     0     0
SMALL
NO_CHARGES

@<TRIPOS>ATOM
      1 Cl1         5.5870   23.2720  -10.5320 Cl        1 UNK         0.0000
      2 O1          2.5000   22.4770   -8.0650 O.2       1 UNK         0.0000
      3 N1          3.5710   25.4350   -7.9580 N.pl3     1 UNK         0.0000
      4 N2          9.3570   27.0170  -10.0650 N.ar      1 UNK         0.0000
      5 N3          2.0240   23.1790  -10.1190 N.am      1 UNK         0.0000
      6 C1          5.5490   25.5920   -8.9410 C.2       1 UNK         0.0000
      7 C2          3.7000   24.3380   -8.7820 C.2       1 UNK         0.0000
      8 C3          4.9280   24.4120   -9.4010 C.2       1 UNK         0.0000
      9 C4          6.8870   26.0930   -9.3350 C.ar      1 UNK         0.0000
     10 C5          4.6830   26.1910   -8.0550 C.2       1 UNK         0.0000
     11 C6          7.6920   26.7840   -8.4260 C.ar      1 UNK         0.0000
     12 C7          7.3810   25.8810  -10.6270 C.ar      1 UNK         0.0000
     13 C8          2.7080   23.2740   -8.9620 C.2       1 UNK         0.0000
     14 C9          8.9310   27.2330   -8.8350 C.ar      1 UNK         0.0000
     15 C10         8.6290   26.3680  -10.9550 C.ar      1 UNK         0.0000
     16 H1          4.8640   27.1130   -7.5230 H         1 UNK         0.0000
     17 H2          2.8030   25.6320   -7.4010 H         1 UNK         0.0000
     18 H3          7.3500   26.9650   -7.4180 H         1 UNK         0.0000
     19 H4          6.7920   25.3470  -11.3570 H         1 UNK         0.0000
     20 H5          9.5600   27.7680   -8.1400 H         1 UNK         0.0000
     21 H6          9.0170   26.2140  -11.9500 H         1 UNK         0.0000
     22 H7          1.3670   22.4750  -10.2380 H         1 UNK         0.0000
     23 H8          2.1860   23.8160  -10.8320 H         1 UNK         0.0000
@<TRIPOS>BOND
     1    1    8 1
     2    2   13 2
     3    3    7 1
     4    3   10 1
     5    3   17 1
     6    4   14 ar
     7    4   15 ar
     8    5   13 am
     9    5   22 1
    10    5   23 1
    11    6    8 1
    12    6    9 1
    13    6   10 2
    14    7    8 2
    15    7   13 1
    16    9   11 ar
    17    9   12 ar
    18   10   16 1
    19   11   14 ar
    20   11   18 1
    21   12   15 ar
    22   12   19 1
    23   14   20 1
    24   15   21 1
