@<TRIPOS>MOLECULE
81689726
   23    24     0     0     0
SMALL
NO_CHARGES

@<TRIPOS>ATOM
      1 Cl1         5.6270   25.4950  -11.5650 Cl        1 UNK         0.0000
      2 O1          6.6760   23.7770  -14.9110 O.2       1 UNK         0.0000
      3 N1          9.0110   23.8800  -12.7090 N.pl3     1 UNK         0.0000
      4 N2          8.5860   28.0820   -7.9570 N.ar      1 UNK         0.0000
      5 N3          6.0730   22.2660  -13.3970 N.am      1 UNK         0.0000
      6 C1          8.4060   25.3370  -11.1560 C.2       1 UNK         0.0000
      7 C2          7.6450   24.0340  -12.8110 C.2       1 UNK         0.0000
      8 C3          7.2470   24.9430  -11.8550 C.2       1 UNK         0.0000
      9 C4          8.4700   26.3020  -10.0320 C.ar      1 UNK         0.0000
     10 C5          9.4690   24.6630  -11.7130 C.2       1 UNK         0.0000
     11 C6          9.1250   27.5280  -10.1740 C.ar      1 UNK         0.0000
     12 C7          7.8700   26.0130   -8.8020 C.ar      1 UNK         0.0000
     13 C8          6.7710   23.3560  -13.7720 C.2       1 UNK         0.0000
     14 C9          9.1600   28.3970   -9.1030 C.ar      1 UNK         0.0000
     15 C10         7.9570   26.9350   -7.7810 C.ar      1 UNK         0.0000
     16 H1         10.5000   24.7480  -11.4030 H         1 UNK         0.0000
     17 H2          9.5540   23.3010  -13.2650 H         1 UNK         0.0000
     18 H3          9.5980   27.7930  -11.1090 H         1 UNK         0.0000
     19 H4          7.3500   25.0780   -8.6540 H         1 UNK         0.0000
     20 H5          9.6650   29.3460   -9.2030 H         1 UNK         0.0000
     21 H6          7.5020   26.7190   -6.8270 H         1 UNK         0.0000
     22 H7          5.4940   21.8170  -14.0330 H         1 UNK         0.0000
     23 H8          6.1520   21.9280  -12.4910 H         1 UNK         0.0000
@<TRIPOS>BOND
     1    1    8 1
     2    2   13 2
     3    3    7 1
     4    3   10 1
     5    3   17 1
     6    4   14 ar
     7    4   15 ar
     8    5   13 am
     9    5   22 1
    10    5   23 1
    11    6    8 1
    12    6    9 1
    13    6   10 2
    14    7    8 2
    15    7   13 1
    16    9   11 ar
    17    9   12 ar
    18   10   16 1
    19   11   14 ar
    20   11   18 1
    21   12   15 ar
    22   12   19 1
    23   14   20 1
    24   15   21 1
