@<TRIPOS>MOLECULE
81689726
   23    24     0     0     0
SMALL
NO_CHARGES

@<TRIPOS>ATOM
      1 Cl1         4.1140   23.6500   -9.9950 Cl        1 UNK         0.0000
      2 O1          5.3520   25.5150   -6.5430 O.2       1 UNK         0.0000
      3 N1          6.8910   26.2780   -9.1290 N.pl3     1 UNK         0.0000
      4 N2          6.9180   22.8000  -14.4520 N.ar      1 UNK         0.0000
      5 N3          3.6430   26.2690   -7.7480 N.am      1 UNK         0.0000
      6 C1          6.5040   24.8900  -10.8100 C.2       1 UNK         0.0000
      7 C2          5.7210   25.6090   -8.8390 C.2       1 UNK         0.0000
      8 C3          5.4630   24.7350   -9.8710 C.2       1 UNK         0.0000
      9 C4          6.6500   24.1560  -12.0900 C.ar      1 UNK         0.0000
     10 C5          7.3620   25.8460  -10.3160 C.2       1 UNK         0.0000
     11 C6          7.1240   24.7990  -13.2360 C.ar      1 UNK         0.0000
     12 C7          6.3220   22.7990  -12.1810 C.ar      1 UNK         0.0000
     13 C8          4.8990   25.7930   -7.6390 C.2       1 UNK         0.0000
     14 C9          7.2440   24.0790  -14.4060 C.ar      1 UNK         0.0000
     15 C10         6.4670   22.1560  -13.3920 C.ar      1 UNK         0.0000
     16 H1          8.2640   26.1920  -10.7980 H         1 UNK         0.0000
     17 H2          7.3070   26.9510   -8.5700 H         1 UNK         0.0000
     18 H3          7.3930   25.8450  -13.2080 H         1 UNK         0.0000
     19 H4          5.9560   22.2650  -11.3170 H         1 UNK         0.0000
     20 H5          7.6100   24.5670  -15.2980 H         1 UNK         0.0000
     21 H6          6.2120   21.1100  -13.4740 H         1 UNK         0.0000
     22 H7          3.1000   26.3900   -6.9540 H         1 UNK         0.0000
     23 H8          3.2840   26.4940   -8.6200 H         1 UNK         0.0000
@<TRIPOS>BOND
     1    1    8 1
     2    2   13 2
     3    3    7 1
     4    3   10 1
     5    3   17 1
     6    4   14 ar
     7    4   15 ar
     8    5   13 am
     9    5   22 1
    10    5   23 1
    11    6    8 1
    12    6    9 1
    13    6   10 2
    14    7    8 2
    15    7   13 1
    16    9   11 ar
    17    9   12 ar
    18   10   16 1
    19   11   14 ar
    20   11   18 1
    21   12   15 ar
    22   12   19 1
    23   14   20 1
    24   15   21 1
