@<TRIPOS>MOLECULE
81689726
   23    24     0     0     0
SMALL
NO_CHARGES

@<TRIPOS>ATOM
      1 Cl1         9.3400   24.4230  -12.0040 Cl        1 UNK         0.0000
      2 O1          6.5340   22.3480  -14.0910 O.2       1 UNK         0.0000
      3 N1          5.4460   24.7100  -12.3500 N.pl3     1 UNK         0.0000
      4 N2          8.7150   27.2700   -7.5360 N.ar      1 UNK         0.0000
      5 N3          7.5750   24.0570  -15.0560 N.am      1 UNK         0.0000
      6 C1          6.9550   25.4190  -10.8940 C.2       1 UNK         0.0000
      7 C2          6.6750   24.2800  -12.8020 C.2       1 UNK         0.0000
      8 C3          7.6300   24.7060  -11.9060 C.2       1 UNK         0.0000
      9 C4          7.5730   26.0690   -9.7130 C.ar      1 UNK         0.0000
     10 C5          5.6140   25.3970  -11.2030 C.2       1 UNK         0.0000
     11 C6          7.2390   25.6710   -8.4170 C.ar      1 UNK         0.0000
     12 C7          8.5120   27.0940   -9.8680 C.ar      1 UNK         0.0000
     13 C8          6.9210   23.4990  -14.0180 C.2       1 UNK         0.0000
     14 C9          7.8380   26.3020   -7.3470 C.ar      1 UNK         0.0000
     15 C10         9.0590   27.6760   -8.7440 C.ar      1 UNK         0.0000
     16 H1          4.8260   25.8530  -10.6220 H         1 UNK         0.0000
     17 H2          4.5970   24.5460  -12.7890 H         1 UNK         0.0000
     18 H3          6.5210   24.8800   -8.2530 H         1 UNK         0.0000
     19 H4          8.8010   27.4280  -10.8540 H         1 UNK         0.0000
     20 H5          7.5860   26.0020   -6.3410 H         1 UNK         0.0000
     21 H6          9.7810   28.4710   -8.8530 H         1 UNK         0.0000
     22 H7          7.7380   23.5410  -15.8610 H         1 UNK         0.0000
     23 H8          7.8800   24.9760  -15.0000 H         1 UNK         0.0000
@<TRIPOS>BOND
     1    1    8 1
     2    2   13 2
     3    3    7 1
     4    3   10 1
     5    3   17 1
     6    4   14 ar
     7    4   15 ar
     8    5   13 am
     9    5   22 1
    10    5   23 1
    11    6    8 1
    12    6    9 1
    13    6   10 2
    14    7    8 2
    15    7   13 1
    16    9   11 ar
    17    9   12 ar
    18   10   16 1
    19   11   14 ar
    20   11   18 1
    21   12   15 ar
    22   12   19 1
    23   14   20 1
    24   15   21 1
