@<TRIPOS>MOLECULE
81689726
   23    24     0     0     0
SMALL
NO_CHARGES

@<TRIPOS>ATOM
      1 Cl1         4.9520   25.3930  -10.4890 Cl        1 UNK         0.0000
      2 O1          3.7330   22.8750   -7.6690 O.2       1 UNK         0.0000
      3 N1          6.0210   24.8810   -6.7520 N.pl3     1 UNK         0.0000
      4 N2          9.6720   27.8140  -11.0510 N.ar      1 UNK         0.0000
      5 N3          2.6880   24.8370   -7.6660 N.am      1 UNK         0.0000
      6 C1          6.9360   25.8140   -8.5390 C.2       1 UNK         0.0000
      7 C2          5.1210   24.7390   -7.7860 C.2       1 UNK         0.0000
      8 C3          5.6730   25.3090   -8.9120 C.2       1 UNK         0.0000
      9 C4          7.8980   26.5170   -9.4210 C.ar      1 UNK         0.0000
     10 C5          7.1130   25.5280   -7.2040 C.2       1 UNK         0.0000
     11 C6          8.3930   27.7790   -9.0820 C.ar      1 UNK         0.0000
     12 C7          8.3390   25.9330  -10.6130 C.ar      1 UNK         0.0000
     13 C8          3.8090   24.0900   -7.7040 C.2       1 UNK         0.0000
     14 C9          9.2860   28.3980   -9.9320 C.ar      1 UNK         0.0000
     15 C10         9.2290   26.6230  -11.4080 C.ar      1 UNK         0.0000
     16 H1          7.9830   25.7800   -6.6160 H         1 UNK         0.0000
     17 H2          5.8890   24.5660   -5.8450 H         1 UNK         0.0000
     18 H3          8.0820   28.2640   -8.1690 H         1 UNK         0.0000
     19 H4          7.9840   24.9570  -10.9080 H         1 UNK         0.0000
     20 H5          9.6740   29.3740   -9.6790 H         1 UNK         0.0000
     21 H6          9.5720   26.1830  -12.3320 H         1 UNK         0.0000
     22 H7          1.8200   24.4070   -7.6120 H         1 UNK         0.0000
     23 H8          2.7490   25.8040   -7.6890 H         1 UNK         0.0000
@<TRIPOS>BOND
     1    1    8 1
     2    2   13 2
     3    3    7 1
     4    3   10 1
     5    3   17 1
     6    4   14 ar
     7    4   15 ar
     8    5   13 am
     9    5   22 1
    10    5   23 1
    11    6    8 1
    12    6    9 1
    13    6   10 2
    14    7    8 2
    15    7   13 1
    16    9   11 ar
    17    9   12 ar
    18   10   16 1
    19   11   14 ar
    20   11   18 1
    21   12   15 ar
    22   12   19 1
    23   14   20 1
    24   15   21 1
