@<TRIPOS>MOLECULE
81689726
   23    24     0     0     0
SMALL
NO_CHARGES

@<TRIPOS>ATOM
      1 Cl1         6.4950   26.2510   -8.3860 Cl        1 UNK         0.0000
      2 O1          9.8640   28.9050   -9.3300 O.2       1 UNK         0.0000
      3 N1          9.1890   26.7200  -11.1950 N.pl3     1 UNK         0.0000
      4 N2          4.1540   22.8870  -11.8030 N.ar      1 UNK         0.0000
      5 N3          9.1390   27.6530   -7.6430 N.am      1 UNK         0.0000
      6 C1          7.3330   25.5350  -10.9750 C.2       1 UNK         0.0000
      7 C2          8.6780   27.0000   -9.9460 C.2       1 UNK         0.0000
      8 C3          7.5230   26.2680   -9.7850 C.2       1 UNK         0.0000
      9 C4          6.2150   24.6050  -11.2660 C.ar      1 UNK         0.0000
     10 C5          8.3790   25.8390  -11.8150 C.2       1 UNK         0.0000
     11 C6          4.8930   24.9590  -10.9820 C.ar      1 UNK         0.0000
     12 C7          6.4550   23.3510  -11.8370 C.ar      1 UNK         0.0000
     13 C8          9.2650   27.9120   -8.9600 C.2       1 UNK         0.0000
     14 C9          3.8840   24.0640  -11.2690 C.ar      1 UNK         0.0000
     15 C10         5.3880   22.5140  -12.0860 C.ar      1 UNK         0.0000
     16 H1          8.5280   25.4380  -12.8060 H         1 UNK         0.0000
     17 H2         10.0010   27.0970  -11.5680 H         1 UNK         0.0000
     18 H3          4.6650   25.9200  -10.5450 H         1 UNK         0.0000
     19 H4          7.4620   23.0410  -12.0750 H         1 UNK         0.0000
     20 H5          2.8590   24.3280  -11.0540 H         1 UNK         0.0000
     21 H6          5.5620   21.5420  -12.5230 H         1 UNK         0.0000
     22 H7          9.5270   28.2560   -6.9910 H         1 UNK         0.0000
     23 H8          8.6580   26.8650   -7.3480 H         1 UNK         0.0000
@<TRIPOS>BOND
     1    1    8 1
     2    2   13 2
     3    3    7 1
     4    3   10 1
     5    3   17 1
     6    4   14 ar
     7    4   15 ar
     8    5   13 am
     9    5   22 1
    10    5   23 1
    11    6    8 1
    12    6    9 1
    13    6   10 2
    14    7    8 2
    15    7   13 1
    16    9   11 ar
    17    9   12 ar
    18   10   16 1
    19   11   14 ar
    20   11   18 1
    21   12   15 ar
    22   12   19 1
    23   14   20 1
    24   15   21 1
