@<TRIPOS>MOLECULE
81689726
   23    24     0     0     0
SMALL
NO_CHARGES

@<TRIPOS>ATOM
      1 Cl1         7.2110   25.1620  -12.5910 Cl        1 UNK         0.0000
      2 O1          5.8280   22.0480  -12.4600 O.2       1 UNK         0.0000
      3 N1          5.5100   23.6070   -9.4200 N.pl3     1 UNK         0.0000
      4 N2          9.5270   28.5270   -9.1560 N.ar      1 UNK         0.0000
      5 N3          3.7830   22.7490  -11.9450 N.am      1 UNK         0.0000
      6 C1          6.9250   25.2680   -9.7940 C.2       1 UNK         0.0000
      7 C2          5.7230   23.6560  -10.7810 C.2       1 UNK         0.0000
      8 C3          6.6060   24.6810  -11.0370 C.2       1 UNK         0.0000
      9 C4          7.8400   26.4130   -9.5710 C.ar      1 UNK         0.0000
     10 C5          6.2320   24.5770   -8.8260 C.2       1 UNK         0.0000
     11 C6          8.6040   26.9360  -10.6170 C.ar      1 UNK         0.0000
     12 C7          7.9550   27.0040   -8.3080 C.ar      1 UNK         0.0000
     13 C8          5.1210   22.7690  -11.7800 C.2       1 UNK         0.0000
     14 C9          9.4420   28.0020  -10.3650 C.ar      1 UNK         0.0000
     15 C10         8.8220   28.0630   -8.1420 C.ar      1 UNK         0.0000
     16 H1          6.2630   24.7780   -7.7650 H         1 UNK         0.0000
     17 H2          4.9330   22.9750   -8.9640 H         1 UNK         0.0000
     18 H3          8.5410   26.5120  -11.6080 H         1 UNK         0.0000
     19 H4          7.3780   26.6320   -7.4750 H         1 UNK         0.0000
     20 H5         10.0380   28.4140  -11.1660 H         1 UNK         0.0000
     21 H6          8.9220   28.5230   -7.1700 H         1 UNK         0.0000
     22 H7          3.3850   22.1610  -12.6060 H         1 UNK         0.0000
     23 H8          3.2190   23.3190  -11.4010 H         1 UNK         0.0000
@<TRIPOS>BOND
     1    1    8 1
     2    2   13 2
     3    3    7 1
     4    3   10 1
     5    3   17 1
     6    4   14 ar
     7    4   15 ar
     8    5   13 am
     9    5   22 1
    10    5   23 1
    11    6    8 1
    12    6    9 1
    13    6   10 2
    14    7    8 2
    15    7   13 1
    16    9   11 ar
    17    9   12 ar
    18   10   16 1
    19   11   14 ar
    20   11   18 1
    21   12   15 ar
    22   12   19 1
    23   14   20 1
    24   15   21 1
