@<TRIPOS>MOLECULE
81689726
   23    24     0     0     0
SMALL
NO_CHARGES

@<TRIPOS>ATOM
      1 Cl1         5.0730   26.1740   -7.8250 Cl        1 UNK         0.0000
      2 O1          3.6610   23.1170   -8.5190 O.2       1 UNK         0.0000
      3 N1          5.8850   23.9830  -10.9730 N.pl3     1 UNK         0.0000
      4 N2          9.7240   28.5820   -8.8460 N.ar      1 UNK         0.0000
      5 N3          2.7500   23.8060  -10.4250 N.am      1 UNK         0.0000
      6 C1          6.8930   25.6380   -9.9020 C.2       1 UNK         0.0000
      7 C2          5.0750   24.3300   -9.9130 C.2       1 UNK         0.0000
      8 C3          5.6810   25.3640   -9.2350 C.2       1 UNK         0.0000
      9 C4          7.8880   26.6720   -9.5300 C.ar      1 UNK         0.0000
     10 C5          6.9800   24.7690  -10.9660 C.2       1 UNK         0.0000
     11 C6          8.1690   26.9490   -8.1900 C.ar      1 UNK         0.0000
     12 C7          8.5750   27.3930  -10.5120 C.ar      1 UNK         0.0000
     13 C8          3.7890   23.7130   -9.5720 C.2       1 UNK         0.0000
     14 C9          9.1020   27.9200   -7.8880 C.ar      1 UNK         0.0000
     15 C10         9.4880   28.3510  -10.1240 C.ar      1 UNK         0.0000
     16 H1          7.7900   24.7240  -11.6780 H         1 UNK         0.0000
     17 H2          5.6970   23.2850  -11.6190 H         1 UNK         0.0000
     18 H3          7.6640   26.4120   -7.4010 H         1 UNK         0.0000
     19 H4          8.3900   27.2050  -11.5590 H         1 UNK         0.0000
     20 H5          9.3260   28.1420   -6.8550 H         1 UNK         0.0000
     21 H6         10.0200   28.9160  -10.8740 H         1 UNK         0.0000
     22 H7          1.9000   23.3970  -10.1990 H         1 UNK         0.0000
     23 H8          2.8510   24.2840  -11.2620 H         1 UNK         0.0000
@<TRIPOS>BOND
     1    1    8 1
     2    2   13 2
     3    3    7 1
     4    3   10 1
     5    3   17 1
     6    4   14 ar
     7    4   15 ar
     8    5   13 am
     9    5   22 1
    10    5   23 1
    11    6    8 1
    12    6    9 1
    13    6   10 2
    14    7    8 2
    15    7   13 1
    16    9   11 ar
    17    9   12 ar
    18   10   16 1
    19   11   14 ar
    20   11   18 1
    21   12   15 ar
    22   12   19 1
    23   14   20 1
    24   15   21 1
