@<TRIPOS>MOLECULE
81689726
   23    24     0     0     0
SMALL
NO_CHARGES

@<TRIPOS>ATOM
      1 Cl1         9.3700   25.1440  -11.8740 Cl        1 UNK         0.0000
      2 O1          6.4180   23.2800  -14.2370 O.2       1 UNK         0.0000
      3 N1          5.4520   25.0290  -11.9330 N.pl3     1 UNK         0.0000
      4 N2          8.8050   27.0020   -6.9050 N.ar      1 UNK         0.0000
      5 N3          7.6640   25.0480  -14.7500 N.am      1 UNK         0.0000
      6 C1          6.9880   25.6240  -10.4550 C.2       1 UNK         0.0000
      7 C2          6.6800   24.8400  -12.5300 C.2       1 UNK         0.0000
      8 C3          7.6530   25.2000  -11.6240 C.2       1 UNK         0.0000
      9 C4          7.6270   26.1070   -9.2070 C.ar      1 UNK         0.0000
     10 C5          5.6370   25.5020  -10.6850 C.2       1 UNK         0.0000
     11 C6          7.2990   25.5480   -7.9690 C.ar      1 UNK         0.0000
     12 C7          8.5780   27.1320   -9.2380 C.ar      1 UNK         0.0000
     13 C8          6.9100   24.3380  -13.8880 C.2       1 UNK         0.0000
     14 C9          7.9170   26.0280   -6.8330 C.ar      1 UNK         0.0000
     15 C10         9.1430   27.5570   -8.0540 C.ar      1 UNK         0.0000
     16 H1          4.8540   25.7440   -9.9810 H         1 UNK         0.0000
     17 H2          4.5930   24.8520  -12.3460 H         1 UNK         0.0000
     18 H3          6.5730   24.7510   -7.9020 H         1 UNK         0.0000
     19 H4          8.8620   27.5880  -10.1750 H         1 UNK         0.0000
     20 H5          7.6710   25.6020   -5.8720 H         1 UNK         0.0000
     21 H6          9.8750   28.3510   -8.0660 H         1 UNK         0.0000
     22 H7          7.8160   24.7150  -15.6490 H         1 UNK         0.0000
     23 H8          8.0520   25.8920  -14.4740 H         1 UNK         0.0000
@<TRIPOS>BOND
     1    1    8 1
     2    2   13 2
     3    3    7 1
     4    3   10 1
     5    3   17 1
     6    4   14 ar
     7    4   15 ar
     8    5   13 am
     9    5   22 1
    10    5   23 1
    11    6    8 1
    12    6    9 1
    13    6   10 2
    14    7    8 2
    15    7   13 1
    16    9   11 ar
    17    9   12 ar
    18   10   16 1
    19   11   14 ar
    20   11   18 1
    21   12   15 ar
    22   12   19 1
    23   14   20 1
    24   15   21 1
