@<TRIPOS>MOLECULE
81689726
   23    24     0     0     0
SMALL
NO_CHARGES

@<TRIPOS>ATOM
      1 Cl1         7.7920   25.7210  -12.3470 Cl        1 UNK         0.0000
      2 O1          7.1680   24.2790  -15.2220 O.2       1 UNK         0.0000
      3 N1          5.5670   22.5110  -12.6790 N.pl3     1 UNK         0.0000
      4 N2          5.5300   26.2640   -7.5470 N.ar      1 UNK         0.0000
      5 N3          7.7560   22.1660  -14.8620 N.am      1 UNK         0.0000
      6 C1          5.8700   24.0650  -11.1320 C.2       1 UNK         0.0000
      7 C2          6.4990   23.3970  -13.1750 C.2       1 UNK         0.0000
      8 C3          6.7080   24.3720  -12.2240 C.2       1 UNK         0.0000
      9 C4          5.7500   24.8380   -9.8720 C.ar      1 UNK         0.0000
     10 C5          5.1870   22.9140  -11.4500 C.2       1 UNK         0.0000
     11 C6          4.5030   25.0560   -9.2800 C.ar      1 UNK         0.0000
     12 C7          6.8820   25.3620   -9.2410 C.ar      1 UNK         0.0000
     13 C8          7.1590   23.3120  -14.4810 C.2       1 UNK         0.0000
     14 C9          4.4370   25.7800   -8.1080 C.ar      1 UNK         0.0000
     15 C10         6.7260   26.0790   -8.0740 C.ar      1 UNK         0.0000
     16 H1          4.4670   22.4140  -10.8200 H         1 UNK         0.0000
     17 H2          5.2370   21.7260  -13.1410 H         1 UNK         0.0000
     18 H3          3.6040   24.6650   -9.7330 H         1 UNK         0.0000
     19 H4          7.8640   25.2110   -9.6640 H         1 UNK         0.0000
     20 H5          3.4780   25.9550   -7.6420 H         1 UNK         0.0000
     21 H6          7.5930   26.4930   -7.5810 H         1 UNK         0.0000
     22 H7          8.1920   22.1100  -15.7270 H         1 UNK         0.0000
     23 H8          7.7520   21.3980  -14.2700 H         1 UNK         0.0000
@<TRIPOS>BOND
     1    1    8 1
     2    2   13 2
     3    3    7 1
     4    3   10 1
     5    3   17 1
     6    4   14 ar
     7    4   15 ar
     8    5   13 am
     9    5   22 1
    10    5   23 1
    11    6    8 1
    12    6    9 1
    13    6   10 2
    14    7    8 2
    15    7   13 1
    16    9   11 ar
    17    9   12 ar
    18   10   16 1
    19   11   14 ar
    20   11   18 1
    21   12   15 ar
    22   12   19 1
    23   14   20 1
    24   15   21 1
