@<TRIPOS>MOLECULE
81689726
   23    24     0     0     0
SMALL
NO_CHARGES

@<TRIPOS>ATOM
      1 Cl1         9.4780   24.8580  -11.8040 Cl        1 UNK         0.0000
      2 O1          7.2530   24.7740  -15.2180 O.2       1 UNK         0.0000
      3 N1          5.6290   24.7840  -12.5440 N.pl3     1 UNK         0.0000
      4 N2          8.0740   26.6870   -6.9920 N.ar      1 UNK         0.0000
      5 N3          7.9800   22.8790  -14.3130 N.am      1 UNK         0.0000
      6 C1          6.8910   25.3530  -10.8160 C.2       1 UNK         0.0000
      7 C2          6.9400   24.5860  -12.9190 C.2       1 UNK         0.0000
      8 C3          7.7440   24.9300  -11.8560 C.2       1 UNK         0.0000
      9 C4          7.3070   25.8230   -9.4720 C.ar      1 UNK         0.0000
     10 C5          5.5990   25.2470  -11.2780 C.2       1 UNK         0.0000
     11 C6          8.1530   26.9250   -9.3270 C.ar      1 UNK         0.0000
     12 C7          6.8570   25.1780   -8.3160 C.ar      1 UNK         0.0000
     13 C8          7.3980   24.0900  -14.2210 C.2       1 UNK         0.0000
     14 C9          8.5150   27.3270   -8.0580 C.ar      1 UNK         0.0000
     15 C10         7.2720   25.6420   -7.0860 C.ar      1 UNK         0.0000
     16 H1          4.7080   25.4920  -10.7190 H         1 UNK         0.0000
     17 H2          4.8530   24.6180  -13.1010 H         1 UNK         0.0000
     18 H3          8.5200   27.4540  -10.1940 H         1 UNK         0.0000
     19 H4          6.1970   24.3250   -8.3850 H         1 UNK         0.0000
     20 H5          9.1700   28.1780   -7.9350 H         1 UNK         0.0000
     21 H6          6.9340   25.1480   -6.1870 H         1 UNK         0.0000
     22 H7          8.2830   22.5510  -15.1750 H         1 UNK         0.0000
     23 H8          8.0990   22.3360  -13.5190 H         1 UNK         0.0000
@<TRIPOS>BOND
     1    1    8 1
     2    2   13 2
     3    3    7 1
     4    3   10 1
     5    3   17 1
     6    4   14 ar
     7    4   15 ar
     8    5   13 am
     9    5   22 1
    10    5   23 1
    11    6    8 1
    12    6    9 1
    13    6   10 2
    14    7    8 2
    15    7   13 1
    16    9   11 ar
    17    9   12 ar
    18   10   16 1
    19   11   14 ar
    20   11   18 1
    21   12   15 ar
    22   12   19 1
    23   14   20 1
    24   15   21 1
