@<TRIPOS>MOLECULE
81689726
   23    24     0     0     0
SMALL
NO_CHARGES

@<TRIPOS>ATOM
      1 Cl1        12.6180   37.5170   -8.5250 Cl        1 UNK         0.0000
      2 O1         11.0160   35.2790   -6.2220 O.2       1 UNK         0.0000
      3 N1         14.3250   34.7310   -6.3600 N.pl3     1 UNK         0.0000
      4 N2         16.9680   37.1850  -11.5960 N.ar      1 UNK         0.0000
      5 N3         12.1070   36.3960   -4.6400 N.am      1 UNK         0.0000
      6 C1         14.8570   35.8460   -8.1970 C.2       1 UNK         0.0000
      7 C2         13.2870   35.6000   -6.6190 C.2       1 UNK         0.0000
      8 C3         13.5950   36.3010   -7.7630 C.2       1 UNK         0.0000
      9 C4         15.5990   36.3170   -9.3910 C.ar      1 UNK         0.0000
     10 C5         15.2710   34.8790   -7.3090 C.2       1 UNK         0.0000
     11 C6         16.7140   37.1490   -9.2610 C.ar      1 UNK         0.0000
     12 C7         15.2060   35.9340  -10.6780 C.ar      1 UNK         0.0000
     13 C8         12.0660   35.7460   -5.8200 C.2       1 UNK         0.0000
     14 C9         17.3750   37.5640  -10.3990 C.ar      1 UNK         0.0000
     15 C10        15.9210   36.3990  -11.7620 C.ar      1 UNK         0.0000
     16 H1         16.1990   34.3300   -7.3630 H         1 UNK         0.0000
     17 H2         14.3680   34.1130   -5.6140 H         1 UNK         0.0000
     18 H3         17.0530   37.4650   -8.2860 H         1 UNK         0.0000
     19 H4         14.3530   35.2870  -10.8200 H         1 UNK         0.0000
     20 H5         18.2370   38.2080  -10.3090 H         1 UNK         0.0000
     21 H6         15.6230   36.1130  -12.7590 H         1 UNK         0.0000
     22 H7         11.2990   36.4930   -4.1120 H         1 UNK         0.0000
     23 H8         12.9440   36.7640   -4.3180 H         1 UNK         0.0000
@<TRIPOS>BOND
     1    1    8 1
     2    2   13 2
     3    3    7 1
     4    3   10 1
     5    3   17 1
     6    4   14 ar
     7    4   15 ar
     8    5   13 am
     9    5   22 1
    10    5   23 1
    11    6    8 1
    12    6    9 1
    13    6   10 2
    14    7    8 2
    15    7   13 1
    16    9   11 ar
    17    9   12 ar
    18   10   16 1
    19   11   14 ar
    20   11   18 1
    21   12   15 ar
    22   12   19 1
    23   14   20 1
    24   15   21 1
