@<TRIPOS>MOLECULE
81689726
   23    24     0     0     0
SMALL
NO_CHARGES

@<TRIPOS>ATOM
      1 Cl1         7.2650   25.4550   -9.8610 Cl        1 UNK         0.0000
      2 O1          5.5250   26.7420   -7.7690 O.2       1 UNK         0.0000
      3 N1          3.4860   24.4430   -9.6040 N.pl3     1 UNK         0.0000
      4 N2          7.2620   22.6340  -14.3890 N.ar      1 UNK         0.0000
      5 N3          3.8120   25.6390   -6.8820 N.am      1 UNK         0.0000
      6 C1          5.1270   24.0560  -11.0390 C.2       1 UNK         0.0000
      7 C2          4.6050   25.0850   -9.1200 C.2       1 UNK         0.0000
      8 C3          5.6400   24.8610  -10.0010 C.2       1 UNK         0.0000
      9 C4          5.8770   23.5550  -12.2160 C.ar      1 UNK         0.0000
     10 C5          3.8000   23.8230  -10.7590 C.2       1 UNK         0.0000
     11 C6          6.0260   22.1850  -12.4440 C.ar      1 UNK         0.0000
     12 C7          6.4500   24.4430  -13.1330 C.ar      1 UNK         0.0000
     13 C8          4.6800   25.8740   -7.8860 C.2       1 UNK         0.0000
     14 C9          6.7310   21.7630  -13.5510 C.ar      1 UNK         0.0000
     15 C10         7.1450   23.9370  -14.2110 C.ar      1 UNK         0.0000
     16 H1          3.1220   23.2400  -11.3640 H         1 UNK         0.0000
     17 H2          2.6140   24.4390   -9.1820 H         1 UNK         0.0000
     18 H3          5.5950   21.4650  -11.7630 H         1 UNK         0.0000
     19 H4          6.3540   25.5100  -12.9950 H         1 UNK         0.0000
     20 H5          6.8520   20.7050  -13.7350 H         1 UNK         0.0000
     21 H6          7.5940   24.6130  -14.9210 H         1 UNK         0.0000
     22 H7          3.8610   26.1600   -6.0660 H         1 UNK         0.0000
     23 H8          3.1360   24.9500   -6.9770 H         1 UNK         0.0000
@<TRIPOS>BOND
     1    1    8 1
     2    2   13 2
     3    3    7 1
     4    3   10 1
     5    3   17 1
     6    4   14 ar
     7    4   15 ar
     8    5   13 am
     9    5   22 1
    10    5   23 1
    11    6    8 1
    12    6    9 1
    13    6   10 2
    14    7    8 2
    15    7   13 1
    16    9   11 ar
    17    9   12 ar
    18   10   16 1
    19   11   14 ar
    20   11   18 1
    21   12   15 ar
    22   12   19 1
    23   14   20 1
    24   15   21 1
