@<TRIPOS>MOLECULE
81689726
   23    24     0     0     0
SMALL
NO_CHARGES

@<TRIPOS>ATOM
      1 Cl1         9.5140   26.0500  -11.1110 Cl        1 UNK         0.0000
      2 O1          8.5550   26.9430   -7.2550 O.2       1 UNK         0.0000
      3 N1          6.1870   25.9410   -9.0400 N.pl3     1 UNK         0.0000
      4 N2          7.0410   22.6930  -14.4390 N.ar      1 UNK         0.0000
      5 N3          8.5290   28.5370   -8.8020 N.am      1 UNK         0.0000
      6 C1          6.9100   25.0050  -10.9120 C.2       1 UNK         0.0000
      7 C2          7.4780   26.3820   -9.2400 C.2       1 UNK         0.0000
      8 C3          7.9460   25.8150  -10.4040 C.2       1 UNK         0.0000
      9 C4          6.9550   24.1920  -12.1510 C.ar      1 UNK         0.0000
     10 C5          5.8450   25.1110  -10.0460 C.2       1 UNK         0.0000
     11 C6          6.6090   22.8380  -12.1360 C.ar      1 UNK         0.0000
     12 C7          7.3410   24.7610  -13.3690 C.ar      1 UNK         0.0000
     13 C8          8.2190   27.2990   -8.3690 C.2       1 UNK         0.0000
     14 C9          6.6660   22.1190  -13.3120 C.ar      1 UNK         0.0000
     15 C10         7.3760   23.9690  -14.4970 C.ar      1 UNK         0.0000
     16 H1          4.8930   24.6130  -10.1540 H         1 UNK         0.0000
     17 H2          5.6180   26.1870   -8.2960 H         1 UNK         0.0000
     18 H3          6.3010   22.3610  -11.2170 H         1 UNK         0.0000
     19 H4          7.6120   25.8050  -13.4240 H         1 UNK         0.0000
     20 H5          6.4000   21.0720  -13.3100 H         1 UNK         0.0000
     21 H6          7.6770   24.3970  -15.4410 H         1 UNK         0.0000
     22 H7          9.0190   29.1440   -8.2260 H         1 UNK         0.0000
     23 H8          8.2640   28.8200   -9.6910 H         1 UNK         0.0000
@<TRIPOS>BOND
     1    1    8 1
     2    2   13 2
     3    3    7 1
     4    3   10 1
     5    3   17 1
     6    4   14 ar
     7    4   15 ar
     8    5   13 am
     9    5   22 1
    10    5   23 1
    11    6    8 1
    12    6    9 1
    13    6   10 2
    14    7    8 2
    15    7   13 1
    16    9   11 ar
    17    9   12 ar
    18   10   16 1
    19   11   14 ar
    20   11   18 1
    21   12   15 ar
    22   12   19 1
    23   14   20 1
    24   15   21 1
