@<TRIPOS>MOLECULE
81689726
   23    24     0     0     0
SMALL
NO_CHARGES

@<TRIPOS>ATOM
      1 Cl1         5.4020   23.2700  -10.7950 Cl        1 UNK         0.0000
      2 O1          2.4380   22.5160   -8.0620 O.2       1 UNK         0.0000
      3 N1          3.6490   25.3810   -7.9960 N.pl3     1 UNK         0.0000
      4 N2          9.2720   26.9330  -10.5250 N.ar      1 UNK         0.0000
      5 N3          1.9680   23.1480  -10.1400 N.am      1 UNK         0.0000
      6 C1          5.5410   25.5360   -9.1330 C.2       1 UNK         0.0000
      7 C2          3.6880   24.3100   -8.8610 C.2       1 UNK         0.0000
      8 C3          4.8620   24.3830   -9.5770 C.2       1 UNK         0.0000
      9 C4          6.8530   26.0270   -9.6220 C.ar      1 UNK         0.0000
     10 C5          4.7640   26.1210   -8.1600 C.2       1 UNK         0.0000
     11 C6          7.7030   26.7560   -8.7860 C.ar      1 UNK         0.0000
     12 C7          7.2750   25.7670  -10.9300 C.ar      1 UNK         0.0000
     13 C8          2.6630   23.2700   -8.9920 C.2       1 UNK         0.0000
     14 C9          8.9140   27.1940   -9.2810 C.ar      1 UNK         0.0000
     15 C10         8.4980   26.2470  -11.3460 C.ar      1 UNK         0.0000
     16 H1          5.0060   27.0220   -7.6170 H         1 UNK         0.0000
     17 H2          2.9330   25.5730   -7.3700 H         1 UNK         0.0000
     18 H3          7.4170   26.9750   -7.7680 H         1 UNK         0.0000
     19 H4          6.6480   25.2030  -11.6050 H         1 UNK         0.0000
     20 H5          9.5780   27.7580   -8.6440 H         1 UNK         0.0000
     21 H6          8.8310   26.0560  -12.3550 H         1 UNK         0.0000
     22 H7          1.2900   22.4600  -10.2260 H         1 UNK         0.0000
     23 H8          2.1440   23.7510  -10.8790 H         1 UNK         0.0000
@<TRIPOS>BOND
     1    1    8 1
     2    2   13 2
     3    3    7 1
     4    3   10 1
     5    3   17 1
     6    4   14 ar
     7    4   15 ar
     8    5   13 am
     9    5   22 1
    10    5   23 1
    11    6    8 1
    12    6    9 1
    13    6   10 2
    14    7    8 2
    15    7   13 1
    16    9   11 ar
    17    9   12 ar
    18   10   16 1
    19   11   14 ar
    20   11   18 1
    21   12   15 ar
    22   12   19 1
    23   14   20 1
    24   15   21 1
