@<TRIPOS>MOLECULE
81689726
   23    24     0     0     0
SMALL
NO_CHARGES

@<TRIPOS>ATOM
      1 Cl1         7.2760   25.1170   -6.7280 Cl        1 UNK         0.0000
      2 O1          3.8980   25.0780   -5.4330 O.2       1 UNK         0.0000
      3 N1          3.9420   24.7900   -8.7650 N.pl3     1 UNK         0.0000
      4 N2          9.4280   26.7090  -11.3420 N.ar      1 UNK         0.0000
      5 N3          3.9290   22.9450   -6.0550 N.am      1 UNK         0.0000
      6 C1          6.0200   25.3950   -9.2300 C.2       1 UNK         0.0000
      7 C2          4.6640   24.6850   -7.5950 C.2       1 UNK         0.0000
      8 C3          5.9620   25.0630   -7.8610 C.2       1 UNK         0.0000
      9 C4          7.2180   25.8560   -9.9730 C.ar      1 UNK         0.0000
     10 C5          4.7580   25.2160   -9.7490 C.2       1 UNK         0.0000
     11 C6          7.6150   25.2290  -11.1570 C.ar      1 UNK         0.0000
     12 C7          7.9770   26.9360   -9.5110 C.ar      1 UNK         0.0000
     13 C8          4.1410   24.2540   -6.2950 C.2       1 UNK         0.0000
     14 C9          8.7350   25.6900  -11.8160 C.ar      1 UNK         0.0000
     15 C10         9.0870   27.3300  -10.2280 C.ar      1 UNK         0.0000
     16 H1          4.4690   25.3890  -10.7750 H         1 UNK         0.0000
     17 H2          2.9990   24.5880   -8.8630 H         1 UNK         0.0000
     18 H3          7.0530   24.3940  -11.5500 H         1 UNK         0.0000
     19 H4          7.7010   27.4510   -8.6030 H         1 UNK         0.0000
     20 H5          9.0500   25.2120  -12.7310 H         1 UNK         0.0000
     21 H6          9.6830   28.1590   -9.8780 H         1 UNK         0.0000
     22 H7          3.5830   22.6600   -5.1940 H         1 UNK         0.0000
     23 H8          4.1190   22.2890   -6.7420 H         1 UNK         0.0000
@<TRIPOS>BOND
     1    1    8 1
     2    2   13 2
     3    3    7 1
     4    3   10 1
     5    3   17 1
     6    4   14 ar
     7    4   15 ar
     8    5   13 am
     9    5   22 1
    10    5   23 1
    11    6    8 1
    12    6    9 1
    13    6   10 2
    14    7    8 2
    15    7   13 1
    16    9   11 ar
    17    9   12 ar
    18   10   16 1
    19   11   14 ar
    20   11   18 1
    21   12   15 ar
    22   12   19 1
    23   14   20 1
    24   15   21 1
