@<TRIPOS>MOLECULE
81689726
   23    24     0     0     0
SMALL
NO_CHARGES

@<TRIPOS>ATOM
      1 Cl1         3.9880   23.5740  -10.1670 Cl        1 UNK         0.0000
      2 O1          5.2220   25.6250   -6.7710 O.2       1 UNK         0.0000
      3 N1          6.8740   26.0920   -9.3320 N.pl3     1 UNK         0.0000
      4 N2          6.9110   22.3260  -14.4540 N.ar      1 UNK         0.0000
      5 N3          3.5530   26.2670   -8.0900 N.am      1 UNK         0.0000
      6 C1          6.4740   24.6340  -10.9490 C.2       1 UNK         0.0000
      7 C2          5.6580   25.5050   -9.0540 C.2       1 UNK         0.0000
      8 C3          5.3910   24.5890  -10.0470 C.2       1 UNK         0.0000
      9 C4          6.6270   23.8220  -12.1800 C.ar      1 UNK         0.0000
     10 C5          7.3650   25.5680  -10.4730 C.2       1 UNK         0.0000
     11 C6          6.4450   22.4370  -12.1550 C.ar      1 UNK         0.0000
     12 C7          6.9520   24.4240  -13.4010 C.ar      1 UNK         0.0000
     13 C8          4.8030   25.8000   -7.9010 C.2       1 UNK         0.0000
     14 C9          6.5970   21.7210  -13.3240 C.ar      1 UNK         0.0000
     15 C10         7.0910   23.6320  -14.5210 C.ar      1 UNK         0.0000
     16 H1          8.3030   25.8370  -10.9360 H         1 UNK         0.0000
     17 H2          7.3060   26.7720   -8.7930 H         1 UNK         0.0000
     18 H3          6.1890   21.9340  -11.2340 H         1 UNK         0.0000
     19 H4          7.0960   25.4920  -13.4630 H         1 UNK         0.0000
     20 H5          6.4590   20.6490  -13.3140 H         1 UNK         0.0000
     21 H6          7.3460   24.0860  -15.4670 H         1 UNK         0.0000
     22 H7          2.9870   26.4620   -7.3270 H         1 UNK         0.0000
     23 H8          3.2200   26.4110   -8.9900 H         1 UNK         0.0000
@<TRIPOS>BOND
     1    1    8 1
     2    2   13 2
     3    3    7 1
     4    3   10 1
     5    3   17 1
     6    4   14 ar
     7    4   15 ar
     8    5   13 am
     9    5   22 1
    10    5   23 1
    11    6    8 1
    12    6    9 1
    13    6   10 2
    14    7    8 2
    15    7   13 1
    16    9   11 ar
    17    9   12 ar
    18   10   16 1
    19   11   14 ar
    20   11   18 1
    21   12   15 ar
    22   12   19 1
    23   14   20 1
    24   15   21 1
