@<TRIPOS>MOLECULE
81689726
   23    24     0     0     0
SMALL
NO_CHARGES

@<TRIPOS>ATOM
      1 Cl1         5.7620   22.5070  -11.4490 Cl        1 UNK         0.0000
      2 O1          6.5180   21.8530  -14.2580 O.2       1 UNK         0.0000
      3 N1          8.2110   24.8910  -13.3690 N.pl3     1 UNK         0.0000
      4 N2          5.7760   26.2590   -7.6570 N.ar      1 UNK         0.0000
      5 N3          8.4150   22.5430  -15.1890 N.am      1 UNK         0.0000
      6 C1          7.1530   24.9520  -11.4250 C.2       1 UNK         0.0000
      7 C2          7.4900   23.7210  -13.2660 C.2       1 UNK         0.0000
      8 C3          6.8180   23.7400  -12.0640 C.2       1 UNK         0.0000
      9 C4          6.6700   25.4110  -10.1010 C.ar      1 UNK         0.0000
     10 C5          8.0100   25.6310  -12.2610 C.2       1 UNK         0.0000
     11 C6          7.5580   25.9140   -9.1470 C.ar      1 UNK         0.0000
     12 C7          5.3110   25.3590   -9.7750 C.ar      1 UNK         0.0000
     13 C8          7.4400   22.6480  -14.2640 C.2       1 UNK         0.0000
     14 C9          7.0660   26.3300   -7.9280 C.ar      1 UNK         0.0000
     15 C10         4.9040   25.7910   -8.5310 C.ar      1 UNK         0.0000
     16 H1          8.4480   26.5980  -12.0630 H         1 UNK         0.0000
     17 H2          8.7730   25.1400  -14.1180 H         1 UNK         0.0000
     18 H3          8.6150   25.9750   -9.3600 H         1 UNK         0.0000
     19 H4          4.5910   24.9820  -10.4870 H         1 UNK         0.0000
     20 H5          7.7450   26.7200   -7.1830 H         1 UNK         0.0000
     21 H6          3.8570   25.7510   -8.2680 H         1 UNK         0.0000
     22 H7          8.3820   21.8330  -15.8490 H         1 UNK         0.0000
     23 H8          9.1470   23.1780  -15.1960 H         1 UNK         0.0000
@<TRIPOS>BOND
     1    1    8 1
     2    2   13 2
     3    3    7 1
     4    3   10 1
     5    3   17 1
     6    4   14 ar
     7    4   15 ar
     8    5   13 am
     9    5   22 1
    10    5   23 1
    11    6    8 1
    12    6    9 1
    13    6   10 2
    14    7    8 2
    15    7   13 1
    16    9   11 ar
    17    9   12 ar
    18   10   16 1
    19   11   14 ar
    20   11   18 1
    21   12   15 ar
    22   12   19 1
    23   14   20 1
    24   15   21 1
