@<TRIPOS>MOLECULE
81689726
   23    24     0     0     0
SMALL
NO_CHARGES

@<TRIPOS>ATOM
      1 Cl1         5.5790   25.3340  -10.5060 Cl        1 UNK         0.0000
      2 O1          6.7760   27.0000   -8.1990 O.2       1 UNK         0.0000
      3 N1          9.3810   26.2900  -10.5080 N.pl3     1 UNK         0.0000
      4 N2          6.8750   21.9620  -14.4330 N.ar      1 UNK         0.0000
      5 N3          8.2640   28.5320   -8.8110 N.am      1 UNK         0.0000
      6 C1          8.1070   24.8900  -11.6560 C.2       1 UNK         0.0000
      7 C2          8.0960   26.4270  -10.0280 C.2       1 UNK         0.0000
      8 C3          7.2860   25.5590  -10.7260 C.2       1 UNK         0.0000
      9 C4          7.6740   23.8600  -12.6320 C.ar      1 UNK         0.0000
     10 C5          9.3880   25.3660  -11.4890 C.2       1 UNK         0.0000
     11 C6          6.9420   22.7430  -12.2200 C.ar      1 UNK         0.0000
     12 C7          7.9810   23.9840  -13.9910 C.ar      1 UNK         0.0000
     13 C8          7.6680   27.3330   -8.9570 C.2       1 UNK         0.0000
     14 C9          6.5590   21.8100  -13.1600 C.ar      1 UNK         0.0000
     15 C10         7.5640   23.0020  -14.8630 C.ar      1 UNK         0.0000
     16 H1         10.2550   25.0500  -12.0500 H         1 UNK         0.0000
     17 H2         10.1540   26.7810  -10.1920 H         1 UNK         0.0000
     18 H3          6.6800   22.6120  -11.1800 H         1 UNK         0.0000
     19 H4          8.5400   24.8350  -14.3500 H         1 UNK         0.0000
     20 H5          5.9940   20.9430  -12.8520 H         1 UNK         0.0000
     21 H6          7.8000   23.0860  -15.9140 H         1 UNK         0.0000
     22 H7          7.9810   29.1310   -8.1030 H         1 UNK         0.0000
     23 H8          8.9780   28.7960   -9.4120 H         1 UNK         0.0000
@<TRIPOS>BOND
     1    1    8 1
     2    2   13 2
     3    3    7 1
     4    3   10 1
     5    3   17 1
     6    4   14 ar
     7    4   15 ar
     8    5   13 am
     9    5   22 1
    10    5   23 1
    11    6    8 1
    12    6    9 1
    13    6   10 2
    14    7    8 2
    15    7   13 1
    16    9   11 ar
    17    9   12 ar
    18   10   16 1
    19   11   14 ar
    20   11   18 1
    21   12   15 ar
    22   12   19 1
    23   14   20 1
    24   15   21 1
