@<TRIPOS>MOLECULE
81689726
   23    24     0     0     0
SMALL
NO_CHARGES

@<TRIPOS>ATOM
      1 Cl1         5.6910   25.4750  -10.1660 Cl        1 UNK         0.0000
      2 O1          7.1220   27.0030   -7.9080 O.2       1 UNK         0.0000
      3 N1          9.5000   26.3510  -10.4700 N.pl3     1 UNK         0.0000
      4 N2          6.5380   22.2800  -14.3530 N.ar      1 UNK         0.0000
      5 N3          8.6110   28.5180   -8.5600 N.am      1 UNK         0.0000
      6 C1          8.0930   25.0380  -11.5640 C.2       1 UNK         0.0000
      7 C2          8.2680   26.4900   -9.8680 C.2       1 UNK         0.0000
      8 C3          7.3760   25.6760  -10.5300 C.2       1 UNK         0.0000
      9 C4          7.5470   24.0690  -12.5450 C.ar      1 UNK         0.0000
     10 C5          9.3950   25.4780  -11.4910 C.2       1 UNK         0.0000
     11 C6          7.6970   24.2760  -13.9180 C.ar      1 UNK         0.0000
     12 C7          6.8730   22.9190  -12.1190 C.ar      1 UNK         0.0000
     13 C8          7.9620   27.3480   -8.7190 C.2       1 UNK         0.0000
     14 C9          7.1740   23.3490  -14.7960 C.ar      1 UNK         0.0000
     15 C10         6.3760   22.0470  -13.0640 C.ar      1 UNK         0.0000
     16 H1         10.2000   25.1740  -12.1430 H         1 UNK         0.0000
     17 H2         10.3110   26.8080  -10.2010 H         1 UNK         0.0000
     18 H3          8.2150   25.1480  -14.2890 H         1 UNK         0.0000
     19 H4          6.7400   22.7210  -11.0660 H         1 UNK         0.0000
     20 H5          7.2840   23.5000  -15.8600 H         1 UNK         0.0000
     21 H6          5.8500   21.1590  -12.7460 H         1 UNK         0.0000
     22 H7          8.4080   29.0860   -7.8000 H         1 UNK         0.0000
     23 H8          9.2830   28.7910   -9.2030 H         1 UNK         0.0000
@<TRIPOS>BOND
     1    1    8 1
     2    2   13 2
     3    3    7 1
     4    3   10 1
     5    3   17 1
     6    4   14 ar
     7    4   15 ar
     8    5   13 am
     9    5   22 1
    10    5   23 1
    11    6    8 1
    12    6    9 1
    13    6   10 2
    14    7    8 2
    15    7   13 1
    16    9   11 ar
    17    9   12 ar
    18   10   16 1
    19   11   14 ar
    20   11   18 1
    21   12   15 ar
    22   12   19 1
    23   14   20 1
    24   15   21 1
