@<TRIPOS>MOLECULE
81689726
   23    24     0     0     0
SMALL
NO_CHARGES

@<TRIPOS>ATOM
      1 Cl1         5.6570   25.4530  -11.4290 Cl        1 UNK         0.0000
      2 O1          6.4600   22.8070  -14.4810 O.2       1 UNK         0.0000
      3 N1          8.8480   23.5190  -12.6320 N.pl3     1 UNK         0.0000
      4 N2          9.0880   28.6310   -8.8590 N.ar      1 UNK         0.0000
      5 N3          5.5900   22.1600  -12.5420 N.am      1 UNK         0.0000
      6 C1          8.4640   25.2870  -11.3560 C.2       1 UNK         0.0000
      7 C2          7.4810   23.6960  -12.5880 C.2       1 UNK         0.0000
      8 C3          7.2200   24.7960  -11.8020 C.2       1 UNK         0.0000
      9 C4          8.6830   26.4620  -10.4780 C.ar      1 UNK         0.0000
     10 C5          9.4400   24.4760  -11.8890 C.2       1 UNK         0.0000
     11 C6          8.2060   26.4760   -9.1650 C.ar      1 UNK         0.0000
     12 C7          9.3790   27.5840  -10.9400 C.ar      1 UNK         0.0000
     13 C8          6.4830   22.8640  -13.2650 C.2       1 UNK         0.0000
     14 C9          8.4320   27.5890   -8.3820 C.ar      1 UNK         0.0000
     15 C10         9.5550   28.6580  -10.0930 C.ar      1 UNK         0.0000
     16 H1         10.5030   24.5870  -11.7390 H         1 UNK         0.0000
     17 H2          9.3080   22.8180  -13.1180 H         1 UNK         0.0000
     18 H3          7.6680   25.6280   -8.7670 H         1 UNK         0.0000
     19 H4          9.7680   27.6100  -11.9470 H         1 UNK         0.0000
     20 H5          8.0660   27.6100   -7.3660 H         1 UNK         0.0000
     21 H6         10.0870   29.5300  -10.4420 H         1 UNK         0.0000
     22 H7          4.9290   21.6090  -12.9900 H         1 UNK         0.0000
     23 H8          5.6100   22.2010  -11.5730 H         1 UNK         0.0000
@<TRIPOS>BOND
     1    1    8 1
     2    2   13 2
     3    3    7 1
     4    3   10 1
     5    3   17 1
     6    4   14 ar
     7    4   15 ar
     8    5   13 am
     9    5   22 1
    10    5   23 1
    11    6    8 1
    12    6    9 1
    13    6   10 2
    14    7    8 2
    15    7   13 1
    16    9   11 ar
    17    9   12 ar
    18   10   16 1
    19   11   14 ar
    20   11   18 1
    21   12   15 ar
    22   12   19 1
    23   14   20 1
    24   15   21 1
