@<TRIPOS>MOLECULE
81689726
   23    24     0     0     0
SMALL
NO_CHARGES

@<TRIPOS>ATOM
      1 Cl1         9.4140   25.9310  -10.9840 Cl        1 UNK         0.0000
      2 O1          8.7530   26.9730   -7.1130 O.2       1 UNK         0.0000
      3 N1          6.2170   26.0660   -8.7190 N.pl3     1 UNK         0.0000
      4 N2          6.5620   22.6300  -14.0570 N.ar      1 UNK         0.0000
      5 N3          8.6940   28.5380   -8.6890 N.am      1 UNK         0.0000
      6 C1          6.7730   25.0410  -10.6010 C.2       1 UNK         0.0000
      7 C2          7.5150   26.4280   -9.0070 C.2       1 UNK         0.0000
      8 C3          7.8810   25.8050  -10.1790 C.2       1 UNK         0.0000
      9 C4          6.6990   24.1940  -11.8160 C.ar      1 UNK         0.0000
     10 C5          5.7700   25.2310   -9.6780 C.2       1 UNK         0.0000
     11 C6          7.0550   24.7020  -13.0680 C.ar      1 UNK         0.0000
     12 C7          6.2770   22.8630  -11.7380 C.ar      1 UNK         0.0000
     13 C8          8.3570   27.3250   -8.2090 C.2       1 UNK         0.0000
     14 C9          6.9720   23.8790  -14.1720 C.ar      1 UNK         0.0000
     15 C10         6.2170   22.1120  -12.8930 C.ar      1 UNK         0.0000
     16 H1          4.7870   24.7850   -9.7150 H         1 UNK         0.0000
     17 H2          5.7080   26.3650   -7.9500 H         1 UNK         0.0000
     18 H3          7.3910   25.7230  -13.1710 H         1 UNK         0.0000
     19 H4          5.9980   22.4320  -10.7880 H         1 UNK         0.0000
     20 H5          7.2440   24.2620  -15.1440 H         1 UNK         0.0000
     21 H6          5.8880   21.0840  -12.8440 H         1 UNK         0.0000
     22 H7          9.2500   29.1320   -8.1610 H         1 UNK         0.0000
     23 H8          8.3820   28.8170   -9.5640 H         1 UNK         0.0000
@<TRIPOS>BOND
     1    1    8 1
     2    2   13 2
     3    3    7 1
     4    3   10 1
     5    3   17 1
     6    4   14 ar
     7    4   15 ar
     8    5   13 am
     9    5   22 1
    10    5   23 1
    11    6    8 1
    12    6    9 1
    13    6   10 2
    14    7    8 2
    15    7   13 1
    16    9   11 ar
    17    9   12 ar
    18   10   16 1
    19   11   14 ar
    20   11   18 1
    21   12   15 ar
    22   12   19 1
    23   14   20 1
    24   15   21 1
