@<TRIPOS>MOLECULE
81689726
   23    24     0     0     0
SMALL
NO_CHARGES

@<TRIPOS>ATOM
      1 Cl1        -5.0150   18.7510  -13.3050 Cl        1 UNK         0.0000
      2 O1         -4.0320   19.0070   -9.5900 O.2       1 UNK         0.0000
      3 N1         -6.9040   20.3420  -10.2610 N.pl3     1 UNK         0.0000
      4 N2         -8.1090   21.8930  -16.3080 N.ar      1 UNK         0.0000
      5 N3         -5.4480   17.3090   -9.8140 N.am      1 UNK         0.0000
      6 C1         -6.9900   20.5680  -12.4610 C.2       1 UNK         0.0000
      7 C2         -5.9680   19.4810  -10.7910 C.2       1 UNK         0.0000
      8 C3         -6.0000   19.6080  -12.1620 C.2       1 UNK         0.0000
      9 C4         -7.3840   21.0330  -13.8130 C.ar      1 UNK         0.0000
     10 C5         -7.5200   20.9960  -11.2660 C.2       1 UNK         0.0000
     11 C6         -8.4690   20.4610  -14.4820 C.ar      1 UNK         0.0000
     12 C7         -6.6820   22.0620  -14.4510 C.ar      1 UNK         0.0000
     13 C8         -5.0880   18.5890  -10.0300 C.2       1 UNK         0.0000
     14 C9         -8.8010   20.9240  -15.7380 C.ar      1 UNK         0.0000
     15 C10        -7.0780   22.4600  -15.7100 C.ar      1 UNK         0.0000
     16 H1         -8.2990   21.7350  -11.1510 H         1 UNK         0.0000
     17 H2         -7.0890   20.4590   -9.3170 H         1 UNK         0.0000
     18 H3         -9.0400   19.6670  -14.0230 H         1 UNK         0.0000
     19 H4         -5.8410   22.5330  -13.9660 H         1 UNK         0.0000
     20 H5         -9.6380   20.4870  -16.2630 H         1 UNK         0.0000
     21 H6         -6.5400   23.2500  -16.2130 H         1 UNK         0.0000
     22 H7         -4.8650   16.7190   -9.3100 H         1 UNK         0.0000
     23 H8         -6.2910   16.9780  -10.1600 H         1 UNK         0.0000
@<TRIPOS>BOND
     1    1    8 1
     2    2   13 2
     3    3    7 1
     4    3   10 1
     5    3   17 1
     6    4   14 ar
     7    4   15 ar
     8    5   13 am
     9    5   22 1
    10    5   23 1
    11    6    8 1
    12    6    9 1
    13    6   10 2
    14    7    8 2
    15    7   13 1
    16    9   11 ar
    17    9   12 ar
    18   10   16 1
    19   11   14 ar
    20   11   18 1
    21   12   15 ar
    22   12   19 1
    23   14   20 1
    24   15   21 1
