@<TRIPOS>MOLECULE
81689726
   23    24     0     0     0
SMALL
NO_CHARGES

@<TRIPOS>ATOM
      1 Cl1        12.6380   37.5270   -8.5200 Cl        1 UNK         0.0000
      2 O1         11.0380   35.2520   -6.2320 O.2       1 UNK         0.0000
      3 N1         14.3410   34.7120   -6.3890 N.pl3     1 UNK         0.0000
      4 N2         16.9870   37.2200  -11.5980 N.ar      1 UNK         0.0000
      5 N3         12.1250   36.3810   -4.6570 N.am      1 UNK         0.0000
      6 C1         14.8730   35.8460   -8.2140 C.2       1 UNK         0.0000
      7 C2         13.3050   35.5870   -6.6370 C.2       1 UNK         0.0000
      8 C3         13.6130   36.3010   -7.7730 C.2       1 UNK         0.0000
      9 C4         15.6160   36.3290   -9.4040 C.ar      1 UNK         0.0000
     10 C5         15.2860   34.8690   -7.3370 C.2       1 UNK         0.0000
     11 C6         15.2240   35.9600  -10.6930 C.ar      1 UNK         0.0000
     12 C7         16.7230   37.1710   -9.2650 C.ar      1 UNK         0.0000
     13 C8         12.0860   35.7280   -5.8350 C.2       1 UNK         0.0000
     14 C9         15.9430   36.4310  -11.7720 C.ar      1 UNK         0.0000
     15 C10        17.3890   37.5930  -10.3970 C.ar      1 UNK         0.0000
     16 H1         16.2120   34.3170   -7.3990 H         1 UNK         0.0000
     17 H2         14.3830   34.0860   -5.6500 H         1 UNK         0.0000
     18 H3         14.3710   35.3140  -10.8440 H         1 UNK         0.0000
     19 H4         17.0550   37.4840   -8.2860 H         1 UNK         0.0000
     20 H5         15.6480   36.1510  -12.7720 H         1 UNK         0.0000
     21 H6         18.2480   38.2390  -10.3010 H         1 UNK         0.0000
     22 H7         11.3180   36.4750   -4.1270 H         1 UNK         0.0000
     23 H8         12.9610   36.7560   -4.3380 H         1 UNK         0.0000
@<TRIPOS>BOND
     1    1    8 1
     2    2   13 2
     3    3    7 1
     4    3   10 1
     5    3   17 1
     6    4   14 ar
     7    4   15 ar
     8    5   13 am
     9    5   22 1
    10    5   23 1
    11    6    8 1
    12    6    9 1
    13    6   10 2
    14    7    8 2
    15    7   13 1
    16    9   11 ar
    17    9   12 ar
    18   10   16 1
    19   11   14 ar
    20   11   18 1
    21   12   15 ar
    22   12   19 1
    23   14   20 1
    24   15   21 1
