@<TRIPOS>MOLECULE
81689726
   23    24     0     0     0
SMALL
NO_CHARGES

@<TRIPOS>ATOM
      1 Cl1         7.2550   25.0690   -6.7620 Cl        1 UNK         0.0000
      2 O1          3.8760   25.1240   -5.4390 O.2       1 UNK         0.0000
      3 N1          3.8960   24.7690   -8.7590 N.pl3     1 UNK         0.0000
      4 N2          9.3910   26.5270  -11.4290 N.ar      1 UNK         0.0000
      5 N3          3.8890   22.9760   -6.0090 N.am      1 UNK         0.0000
      6 C1          5.9810   25.3250   -9.2560 C.2       1 UNK         0.0000
      7 C2          4.6280   24.6730   -7.5950 C.2       1 UNK         0.0000
      8 C3          5.9290   25.0190   -7.8800 C.2       1 UNK         0.0000
      9 C4          7.1800   25.7480  -10.0190 C.ar      1 UNK         0.0000
     10 C5          4.7100   25.1610   -9.7600 C.2       1 UNK         0.0000
     11 C6          7.9940   26.7860   -9.5600 C.ar      1 UNK         0.0000
     12 C7          7.5290   25.1140  -11.2160 C.ar      1 UNK         0.0000
     13 C8          4.1090   24.2770   -6.2820 C.2       1 UNK         0.0000
     14 C9          9.1000   27.1470  -10.3010 C.ar      1 UNK         0.0000
     15 C10         8.6490   25.5420  -11.8980 C.ar      1 UNK         0.0000
     16 H1          4.4140   25.3200  -10.7860 H         1 UNK         0.0000
     17 H2          2.9480   24.5850   -8.8450 H         1 UNK         0.0000
     18 H3          7.7620   27.2990   -8.6380 H         1 UNK         0.0000
     19 H4          6.9290   24.3040  -11.6020 H         1 UNK         0.0000
     20 H5          9.7350   27.9490   -9.9550 H         1 UNK         0.0000
     21 H6          8.9250   25.0620  -12.8250 H         1 UNK         0.0000
     22 H7          3.5460   22.7140   -5.1400 H         1 UNK         0.0000
     23 H8          4.0710   22.3010   -6.6820 H         1 UNK         0.0000
@<TRIPOS>BOND
     1    1    8 1
     2    2   13 2
     3    3    7 1
     4    3   10 1
     5    3   17 1
     6    4   14 ar
     7    4   15 ar
     8    5   13 am
     9    5   22 1
    10    5   23 1
    11    6    8 1
    12    6    9 1
    13    6   10 2
    14    7    8 2
    15    7   13 1
    16    9   11 ar
    17    9   12 ar
    18   10   16 1
    19   11   14 ar
    20   11   18 1
    21   12   15 ar
    22   12   19 1
    23   14   20 1
    24   15   21 1
