@<TRIPOS>MOLECULE
81689726
   23    24     0     0     0
SMALL
NO_CHARGES

@<TRIPOS>ATOM
      1 Cl1         4.5930   25.2820   -9.1200 Cl        1 UNK         0.0000
      2 O1          3.8380   22.6210   -6.2970 O.2       1 UNK         0.0000
      3 N1          6.3190   24.5250   -5.6830 N.pl3     1 UNK         0.0000
      4 N2          9.1970   27.6520  -10.4120 N.ar      1 UNK         0.0000
      5 N3          2.8830   24.5940   -5.9320 N.am      1 UNK         0.0000
      6 C1          6.9150   25.5480   -7.5540 C.2       1 UNK         0.0000
      7 C2          5.2400   24.4630   -6.5380 C.2       1 UNK         0.0000
      8 C3          5.5900   25.0900   -7.7130 C.2       1 UNK         0.0000
      9 C4          7.7160   26.2870   -8.5590 C.ar      1 UNK         0.0000
     10 C5          7.3270   25.1800   -6.2930 C.2       1 UNK         0.0000
     11 C6          7.8030   25.8390   -9.8790 C.ar      1 UNK         0.0000
     12 C7          8.4010   27.4570   -8.2120 C.ar      1 UNK         0.0000
     13 C8          3.9480   23.8320   -6.2500 C.2       1 UNK         0.0000
     14 C9          8.5600   26.5570  -10.7810 C.ar      1 UNK         0.0000
     15 C10         9.1400   28.1100   -9.1750 C.ar      1 UNK         0.0000
     16 H1          8.2970   25.3800   -5.8650 H         1 UNK         0.0000
     17 H2          6.3480   24.1580   -4.7860 H         1 UNK         0.0000
     18 H3          7.2860   24.9430  -10.1890 H         1 UNK         0.0000
     19 H4          8.3550   27.8390   -7.2030 H         1 UNK         0.0000
     20 H5          8.6340   26.2180  -11.8040 H         1 UNK         0.0000
     21 H6          9.6760   29.0110   -8.9160 H         1 UNK         0.0000
     22 H7          2.0280   24.1770   -5.7410 H         1 UNK         0.0000
     23 H8          2.9710   25.5580   -5.8900 H         1 UNK         0.0000
@<TRIPOS>BOND
     1    1    8 1
     2    2   13 2
     3    3    7 1
     4    3   10 1
     5    3   17 1
     6    4   14 ar
     7    4   15 ar
     8    5   13 am
     9    5   22 1
    10    5   23 1
    11    6    8 1
    12    6    9 1
    13    6   10 2
    14    7    8 2
    15    7   13 1
    16    9   11 ar
    17    9   12 ar
    18   10   16 1
    19   11   14 ar
    20   11   18 1
    21   12   15 ar
    22   12   19 1
    23   14   20 1
    24   15   21 1
