@<TRIPOS>MOLECULE
81689726
   23    24     0     0     0
SMALL
NO_CHARGES

@<TRIPOS>ATOM
      1 Cl1         7.1280   25.1800  -12.5600 Cl        1 UNK         0.0000
      2 O1          5.7300   22.0600  -12.4530 O.2       1 UNK         0.0000
      3 N1          5.4740   23.5740   -9.3900 N.pl3     1 UNK         0.0000
      4 N2          9.5200   28.4690   -9.1050 N.ar      1 UNK         0.0000
      5 N3          3.7000   22.7830  -11.9100 N.am      1 UNK         0.0000
      6 C1          6.8910   25.2350   -9.7580 C.2       1 UNK         0.0000
      7 C2          5.6640   23.6480  -10.7530 C.2       1 UNK         0.0000
      8 C3          6.5480   24.6730  -11.0050 C.2       1 UNK         0.0000
      9 C4          7.8150   26.3720   -9.5290 C.ar      1 UNK         0.0000
     10 C5          6.2120   24.5300   -8.7900 C.2       1 UNK         0.0000
     11 C6          8.5730   26.9020  -10.5760 C.ar      1 UNK         0.0000
     12 C7          7.9470   26.9460   -8.2610 C.ar      1 UNK         0.0000
     13 C8          5.0390   22.7820  -11.7580 C.2       1 UNK         0.0000
     14 C9          9.4200   27.9600  -10.3190 C.ar      1 UNK         0.0000
     15 C10         8.8220   27.9980   -8.0900 C.ar      1 UNK         0.0000
     16 H1          6.2620   24.7110   -7.7270 H         1 UNK         0.0000
     17 H2          4.9010   22.9370   -8.9350 H         1 UNK         0.0000
     18 H3          8.4980   26.4910  -11.5720 H         1 UNK         0.0000
     19 H4          7.3750   26.5680   -7.4260 H         1 UNK         0.0000
     20 H5         10.0110   28.3770  -11.1220 H         1 UNK         0.0000
     21 H6          8.9340   28.4450   -7.1140 H         1 UNK         0.0000
     22 H7          3.2870   22.2100  -12.5750 H         1 UNK         0.0000
     23 H8          3.1500   23.3550  -11.3540 H         1 UNK         0.0000
@<TRIPOS>BOND
     1    1    8 1
     2    2   13 2
     3    3    7 1
     4    3   10 1
     5    3   17 1
     6    4   14 ar
     7    4   15 ar
     8    5   13 am
     9    5   22 1
    10    5   23 1
    11    6    8 1
    12    6    9 1
    13    6   10 2
    14    7    8 2
    15    7   13 1
    16    9   11 ar
    17    9   12 ar
    18   10   16 1
    19   11   14 ar
    20   11   18 1
    21   12   15 ar
    22   12   19 1
    23   14   20 1
    24   15   21 1
