@<TRIPOS>MOLECULE
81689726
   23    24     0     0     0
SMALL
NO_CHARGES

@<TRIPOS>ATOM
      1 Cl1         7.8310   25.7480  -12.3510 Cl        1 UNK         0.0000
      2 O1          7.1440   24.3100  -15.2250 O.2       1 UNK         0.0000
      3 N1          5.5940   22.5430  -12.6550 N.pl3     1 UNK         0.0000
      4 N2          5.6510   26.2810   -7.5120 N.ar      1 UNK         0.0000
      5 N3          7.7580   22.2040  -14.8690 N.am      1 UNK         0.0000
      6 C1          5.9260   24.0920  -11.1090 C.2       1 UNK         0.0000
      7 C2          6.5200   23.4290  -13.1630 C.2       1 UNK         0.0000
      8 C3          6.7460   24.4000  -12.2140 C.2       1 UNK         0.0000
      9 C4          5.8280   24.8610   -9.8450 C.ar      1 UNK         0.0000
     10 C5          5.2350   22.9430  -11.4190 C.2       1 UNK         0.0000
     11 C6          4.5860   25.1660   -9.2830 C.ar      1 UNK         0.0000
     12 C7          6.9790   25.2960   -9.1780 C.ar      1 UNK         0.0000
     13 C8          7.1570   23.3460  -14.4810 C.2       1 UNK         0.0000
     14 C9          4.5410   25.8840   -8.1060 C.ar      1 UNK         0.0000
     15 C10         6.8440   26.0130   -8.0090 C.ar      1 UNK         0.0000
     16 H1          4.5250   22.4430  -10.7770 H         1 UNK         0.0000
     17 H2          5.2540   21.7600  -13.1140 H         1 UNK         0.0000
     18 H3          3.6730   24.8450   -9.7640 H         1 UNK         0.0000
     19 H4          7.9580   25.0760   -9.5770 H         1 UNK         0.0000
     20 H5          3.5850   26.1250   -7.6650 H         1 UNK         0.0000
     21 H6          7.7250   26.3570   -7.4890 H         1 UNK         0.0000
     22 H7          8.1800   22.1500  -15.7410 H         1 UNK         0.0000
     23 H8          7.7720   21.4380  -14.2750 H         1 UNK         0.0000
@<TRIPOS>BOND
     1    1    8 1
     2    2   13 2
     3    3    7 1
     4    3   10 1
     5    3   17 1
     6    4   14 ar
     7    4   15 ar
     8    5   13 am
     9    5   22 1
    10    5   23 1
    11    6    8 1
    12    6    9 1
    13    6   10 2
    14    7    8 2
    15    7   13 1
    16    9   11 ar
    17    9   12 ar
    18   10   16 1
    19   11   14 ar
    20   11   18 1
    21   12   15 ar
    22   12   19 1
    23   14   20 1
    24   15   21 1
