@<TRIPOS>MOLECULE
81689726
   23    24     0     0     0
SMALL
NO_CHARGES

@<TRIPOS>ATOM
      1 Cl1         4.8830   24.1560  -12.3380 Cl        1 UNK         0.0000
      2 O1          7.3260   25.0790  -15.4920 O.2       1 UNK         0.0000
      3 N1          8.6260   25.2750  -12.6680 N.pl3     1 UNK         0.0000
      4 N2          5.3060   25.7520   -7.2660 N.ar      1 UNK         0.0000
      5 N3          7.0610   22.9760  -14.8230 N.am      1 UNK         0.0000
      6 C1          7.1250   25.2540  -11.0400 C.2       1 UNK         0.0000
      7 C2          7.4690   24.7420  -13.1930 C.2       1 UNK         0.0000
      8 C3          6.5170   24.7240  -12.1980 C.2       1 UNK         0.0000
      9 C4          6.4860   25.4290   -9.7140 C.ar      1 UNK         0.0000
     10 C5          8.4200   25.5820  -11.3710 C.2       1 UNK         0.0000
     11 C6          7.2580   25.5210   -8.5520 C.ar      1 UNK         0.0000
     12 C7          5.0960   25.5130   -9.5920 C.ar      1 UNK         0.0000
     13 C8          7.2810   24.2820  -14.5730 C.2       1 UNK         0.0000
     14 C9          6.6230   25.6830   -7.3380 C.ar      1 UNK         0.0000
     15 C10         4.5420   25.6700   -8.3390 C.ar      1 UNK         0.0000
     16 H1          9.1500   26.0160  -10.7040 H         1 UNK         0.0000
     17 H2          9.4550   25.4070  -13.1520 H         1 UNK         0.0000
     18 H3          8.3350   25.4650   -8.6030 H         1 UNK         0.0000
     19 H4          4.4650   25.4520  -10.4660 H         1 UNK         0.0000
     20 H5          7.2100   25.7550   -6.4350 H         1 UNK         0.0000
     21 H6          3.4690   25.7310   -8.2330 H         1 UNK         0.0000
     22 H7          6.9360   22.6720  -15.7360 H         1 UNK         0.0000
     23 H8          7.0290   22.3410  -14.0920 H         1 UNK         0.0000
@<TRIPOS>BOND
     1    1    8 1
     2    2   13 2
     3    3    7 1
     4    3   10 1
     5    3   17 1
     6    4   14 ar
     7    4   15 ar
     8    5   13 am
     9    5   22 1
    10    5   23 1
    11    6    8 1
    12    6    9 1
    13    6   10 2
    14    7    8 2
    15    7   13 1
    16    9   11 ar
    17    9   12 ar
    18   10   16 1
    19   11   14 ar
    20   11   18 1
    21   12   15 ar
    22   12   19 1
    23   14   20 1
    24   15   21 1
