@<TRIPOS>MOLECULE
81689726
   23    24     0     0     0
SMALL
NO_CHARGES

@<TRIPOS>ATOM
      1 Cl1         2.8080   23.4240  -10.2330 Cl        1 UNK         0.0000
      2 O1          2.1070   22.3440   -6.9510 O.2       1 UNK         0.0000
      3 N1          5.1730   23.7620   -7.1260 N.pl3     1 UNK         0.0000
      4 N2          7.2470   24.0280  -13.1300 N.ar      1 UNK         0.0000
      5 N3          2.1300   24.4650   -6.2890 N.am      1 UNK         0.0000
      6 C1          5.4440   23.7950   -9.3220 C.2       1 UNK         0.0000
      7 C2          3.9260   23.5940   -7.6880 C.2       1 UNK         0.0000
      8 C3          4.0720   23.6050   -9.0570 C.2       1 UNK         0.0000
      9 C4          6.0780   23.8770  -10.6600 C.ar      1 UNK         0.0000
     10 C5          6.0870   23.8840   -8.1090 C.2       1 UNK         0.0000
     11 C6          6.6780   25.0600  -11.0990 C.ar      1 UNK         0.0000
     12 C7          6.0970   22.7710  -11.5150 C.ar      1 UNK         0.0000
     13 C8          2.6670   23.4250   -6.9560 C.2       1 UNK         0.0000
     14 C9          7.2570   25.0940  -12.3500 C.ar      1 UNK         0.0000
     15 C10         6.6910   22.8920  -12.7540 C.ar      1 UNK         0.0000
     16 H1          7.1480   24.0280   -7.9670 H         1 UNK         0.0000
     17 H2          5.3620   23.7900   -6.1750 H         1 UNK         0.0000
     18 H3          6.6900   25.9370  -10.4670 H         1 UNK         0.0000
     19 H4          5.6480   21.8360  -11.2120 H         1 UNK         0.0000
     20 H5          7.7230   26.0040  -12.6990 H         1 UNK         0.0000
     21 H6          6.7070   22.0450  -13.4230 H         1 UNK         0.0000
     22 H7          1.2970   24.3530   -5.8060 H         1 UNK         0.0000
     23 H8          2.5780   25.3250   -6.2900 H         1 UNK         0.0000
@<TRIPOS>BOND
     1    1    8 1
     2    2   13 2
     3    3    7 1
     4    3   10 1
     5    3   17 1
     6    4   14 ar
     7    4   15 ar
     8    5   13 am
     9    5   22 1
    10    5   23 1
    11    6    8 1
    12    6    9 1
    13    6   10 2
    14    7    8 2
    15    7   13 1
    16    9   11 ar
    17    9   12 ar
    18   10   16 1
    19   11   14 ar
    20   11   18 1
    21   12   15 ar
    22   12   19 1
    23   14   20 1
    24   15   21 1
