@<TRIPOS>MOLECULE
81689726
   23    24     0     0     0
SMALL
NO_CHARGES

@<TRIPOS>ATOM
      1 Cl1         7.2340   25.1590  -12.4860 Cl        1 UNK         0.0000
      2 O1          5.8220   22.0640  -12.4350 O.2       1 UNK         0.0000
      3 N1          5.4810   23.5630   -9.3640 N.pl3     1 UNK         0.0000
      4 N2          9.5420   28.4380   -8.9640 N.ar      1 UNK         0.0000
      5 N3          3.7760   22.7590  -11.9170 N.am      1 UNK         0.0000
      6 C1          6.9160   25.2170   -9.6910 C.2       1 UNK         0.0000
      7 C2          5.7110   23.6350  -10.7210 C.2       1 UNK         0.0000
      8 C3          6.6070   24.6560  -10.9480 C.2       1 UNK         0.0000
      9 C4          7.8390   26.3490   -9.4360 C.ar      1 UNK         0.0000
     10 C5          6.2060   24.5150   -8.7440 C.2       1 UNK         0.0000
     11 C6          8.5210   26.9700  -10.4860 C.ar      1 UNK         0.0000
     12 C7          8.0450   26.8290   -8.1390 C.ar      1 UNK         0.0000
     13 C8          5.1120   22.7720  -11.7430 C.2       1 UNK         0.0000
     14 C9          9.3700   28.0200  -10.2040 C.ar      1 UNK         0.0000
     15 C10         8.9160   27.8800   -7.9440 C.ar      1 UNK         0.0000
     16 H1          6.2260   24.6970   -7.6790 H         1 UNK         0.0000
     17 H2          4.8930   22.9290   -8.9260 H         1 UNK         0.0000
     18 H3          8.3870   26.6330  -11.5030 H         1 UNK         0.0000
     19 H4          7.5330   26.3790   -7.3010 H         1 UNK         0.0000
     20 H5          9.9020   28.5060  -11.0080 H         1 UNK         0.0000
     21 H6          9.0860   28.2550   -6.9460 H         1 UNK         0.0000
     22 H7          3.3790   22.1880  -12.5940 H         1 UNK         0.0000
     23 H8          3.2100   23.3200  -11.3630 H         1 UNK         0.0000
@<TRIPOS>BOND
     1    1    8 1
     2    2   13 2
     3    3    7 1
     4    3   10 1
     5    3   17 1
     6    4   14 ar
     7    4   15 ar
     8    5   13 am
     9    5   22 1
    10    5   23 1
    11    6    8 1
    12    6    9 1
    13    6   10 2
    14    7    8 2
    15    7   13 1
    16    9   11 ar
    17    9   12 ar
    18   10   16 1
    19   11   14 ar
    20   11   18 1
    21   12   15 ar
    22   12   19 1
    23   14   20 1
    24   15   21 1
