@<TRIPOS>MOLECULE
81689726
   23    24     0     0     0
SMALL
NO_CHARGES

@<TRIPOS>ATOM
      1 Cl1         3.9340   23.8160  -10.1330 Cl        1 UNK         0.0000
      2 O1          5.2190   25.4750   -6.5200 O.2       1 UNK         0.0000
      3 N1          6.9430   26.0540   -8.9930 N.pl3     1 UNK         0.0000
      4 N2          6.8810   22.8200  -14.4670 N.ar      1 UNK         0.0000
      5 N3          3.5910   26.2680   -7.8080 N.am      1 UNK         0.0000
      6 C1          6.4970   24.7920  -10.7570 C.2       1 UNK         0.0000
      7 C2          5.6880   25.5190   -8.8000 C.2       1 UNK         0.0000
      8 C3          5.3910   24.7250   -9.8840 C.2       1 UNK         0.0000
      9 C4          6.6320   24.1000  -12.0610 C.ar      1 UNK         0.0000
     10 C5          7.4300   25.6180  -10.1720 C.2       1 UNK         0.0000
     11 C6          7.1280   24.7700  -13.1830 C.ar      1 UNK         0.0000
     12 C7          6.2730   22.7550  -12.2000 C.ar      1 UNK         0.0000
     13 C8          4.8230   25.7500   -7.6380 C.2       1 UNK         0.0000
     14 C9          7.2370   24.0880  -14.3760 C.ar      1 UNK         0.0000
     15 C10         6.4090   22.1500  -13.4320 C.ar      1 UNK         0.0000
     16 H1          8.3940   25.8730  -10.5870 H         1 UNK         0.0000
     17 H2          7.4020   26.6490   -8.3810 H         1 UNK         0.0000
     18 H3          7.4200   25.8080  -13.1170 H         1 UNK         0.0000
     19 H4          5.8910   22.2000  -11.3560 H         1 UNK         0.0000
     20 H5          7.6180   24.5970  -15.2490 H         1 UNK         0.0000
     21 H6          6.1300   21.1140  -13.5510 H         1 UNK         0.0000
     22 H7          3.0190   26.4210   -7.0400 H         1 UNK         0.0000
     23 H8          3.2770   26.4910   -8.6980 H         1 UNK         0.0000
@<TRIPOS>BOND
     1    1    8 1
     2    2   13 2
     3    3    7 1
     4    3   10 1
     5    3   17 1
     6    4   14 ar
     7    4   15 ar
     8    5   13 am
     9    5   22 1
    10    5   23 1
    11    6    8 1
    12    6    9 1
    13    6   10 2
    14    7    8 2
    15    7   13 1
    16    9   11 ar
    17    9   12 ar
    18   10   16 1
    19   11   14 ar
    20   11   18 1
    21   12   15 ar
    22   12   19 1
    23   14   20 1
    24   15   21 1
