@<TRIPOS>MOLECULE
81689726
   23    24     0     0     0
SMALL
NO_CHARGES

@<TRIPOS>ATOM
      1 Cl1         9.3550   24.4530  -12.0010 Cl        1 UNK         0.0000
      2 O1          6.5170   22.4640  -14.1640 O.2       1 UNK         0.0000
      3 N1          5.4650   24.7840  -12.3620 N.pl3     1 UNK         0.0000
      4 N2          8.7290   27.1940   -7.4670 N.ar      1 UNK         0.0000
      5 N3          7.6320   24.1650  -15.0580 N.am      1 UNK         0.0000
      6 C1          6.9730   25.4440  -10.8800 C.2       1 UNK         0.0000
      7 C2          6.6930   24.3540  -12.8160 C.2       1 UNK         0.0000
      8 C3          7.6470   24.7490  -11.9060 C.2       1 UNK         0.0000
      9 C4          7.5900   26.0600   -9.6810 C.ar      1 UNK         0.0000
     10 C5          5.6330   25.4410  -11.1970 C.2       1 UNK         0.0000
     11 C6          8.5520   27.0660   -9.8050 C.ar      1 UNK         0.0000
     12 C7          7.2210   25.6530   -8.3950 C.ar      1 UNK         0.0000
     13 C8          6.9390   23.6000  -14.0500 C.2       1 UNK         0.0000
     14 C9          9.1000   27.6110   -8.6630 C.ar      1 UNK         0.0000
     15 C10         7.8240   26.2460   -7.3060 C.ar      1 UNK         0.0000
     16 H1          4.8460   25.8910  -10.6090 H         1 UNK         0.0000
     17 H2          4.6180   24.6380  -12.8080 H         1 UNK         0.0000
     18 H3          8.8610   27.4120  -10.7800 H         1 UNK         0.0000
     19 H4          6.4780   24.8810   -8.2570 H         1 UNK         0.0000
     20 H5          9.8440   28.3890   -8.7480 H         1 UNK         0.0000
     21 H6          7.5500   25.9360   -6.3090 H         1 UNK         0.0000
     22 H7          7.7950   23.6670  -15.8740 H         1 UNK         0.0000
     23 H8          7.9650   25.0720  -14.9690 H         1 UNK         0.0000
@<TRIPOS>BOND
     1    1    8 1
     2    2   13 2
     3    3    7 1
     4    3   10 1
     5    3   17 1
     6    4   14 ar
     7    4   15 ar
     8    5   13 am
     9    5   22 1
    10    5   23 1
    11    6    8 1
    12    6    9 1
    13    6   10 2
    14    7    8 2
    15    7   13 1
    16    9   11 ar
    17    9   12 ar
    18   10   16 1
    19   11   14 ar
    20   11   18 1
    21   12   15 ar
    22   12   19 1
    23   14   20 1
    24   15   21 1
